* File: /home/IC/final/READ/read_out.pex.spi.pex
* Created: Thu Apr  3 17:16:18 2025
* Program "Calibre xRC"
* Version "v2019.3_15.11"
* Nominal Temperature: 27C
* Circuit Temperature: 27C
* 
.subckt PM_READ_OUT_XI0.NET016 36 41 46 47 58 62 66 70 74 78 82 86
c0 150 0 0.107365f
c1 131 0 0.113811f
c2 123 0 0.129745f
c3 122 0 0.0605169f
c4 115 0 0.0808405f
c5 113 0 0.876812f
c6 105 0 0.102391f
c7 104 0 0.105588f
c8 99 0 0.10274f
c9 92 0 0.0959352f
c10 88 0 0.0333748f
c11 86 0 0.113644f
c12 82 0 0.301016f
c13 78 0 0.0923023f
c14 74 0 0.324283f
c15 70 0 0.108419f
c16 66 0 0.268613f
c17 62 0 0.114247f
c18 58 0 0.351956f
c19 54 0 0.0981676f
c20 51 0 0.157189f
c21 50 0 0.137984f
c22 46 0 5.65391e-19
c23 44 0 0.108591f
c24 39 0 0.110139f
c25 36 0 0.00143353f
c26 30 0 0.0633604f
c27 26 0 0.0490945f
c28 25 0 0.194092f
c29 24 0 0.121279f
c30 21 0 0.0639859f
c31 16 0 0.0444533f
c32 14 0 0.326233f
c33 12 0 0.0281013f
c34 11 0 0.0980461f
c35 10 0 0.124875f
c36 8 0 0.0416776f
c37 7 0 0.0902814f
c38 6 0 0.179832f
c39 3 0 0.193917f
r40 128 131 0.00195
r41 126 128 0.0468
r42 123 125 0.0486091
r43 122 123 8
r44 115 119 0.01638
r45 109 113 0.6279
r46 105 131 8
r47 104 105 13.2552
r48 101 104 6.2234
r49 96 99 6.2234
r50 96 122 13.2552
r51 93 150 0.0704094
r52 93 113 8
r53 92 93 13.2552
r54 89 92 5.84043
r55 84 101 4.73303
r56 84 86 28.5
r57 80 101 4.73303
r58 80 82 106.3
r59 76 99 4.73303
r60 76 78 24.75
r61 72 99 4.73303
r62 72 74 112.25
r63 68 89 4.73303
r64 68 70 29.25
r65 64 89 4.73303
r66 64 66 95.5
r67 60 88 7.73958
r68 60 62 27.3
r69 56 88 7.73958
r70 56 58 109.45
r71 54 109 8
r72 53 54 13.2552
r73 51 88 1.29764
r74 51 53 13.5
r75 49 50 16.3327
r76 47 49 4.88298
r77 46 49 4.88298
r78 43 44 16.3327
r79 41 43 4.88298
r80 39 119 8
r81 38 39 8.16635
r82 36 38 2.41579
r83 35 50 0.0952
r84 34 44 0.0952
r85 32 34 0.0883959
r86 30 39 0.1938
r87 27 30 0.112609
r88 26 34 0.0452377
r89 25 35 0.0413287
r90 25 26 0.313478
r91 24 32 0.0095674
r92 23 27 0.00115592
r93 23 24 0.3178
r94 21 32 0.0332923
r95 21 150 0.202391
r96 15 128 0.0255799
r97 15 16 0.12142
r98 14 126 0.0255799
r99 13 14 0.72748
r100 11 16 0.0363174
r101 11 12 0.2626
r102 9 12 0.0363174
r103 9 10 0.3289
r104 7 13 0.0363174
r105 7 8 0.3484
r106 6 8 0.0363174
r107 6 125 0.3029
r108 4 115 0.0255799
r109 3 10 0.0363174
r110 3 4 0.4004
.ends

.subckt PM_READ_OUT_XI0.NET36 23 24 28 33 40 46
c0 74 0 0.243362f
c1 68 0 0.289372f
c2 67 0 0.106214f
c3 66 0 0.086349f
c4 61 0 0.0427778f
c5 58 0 0.0977055f
c6 51 0 0.0598649f
c7 46 0 0.0832423f
c8 42 0 0.120241f
c9 40 0 0.29291f
c10 38 0 0.12226f
c11 35 0 5.79634e-20
c12 31 0 0.106245f
c13 27 0 0.186116f
c14 23 0 0.0102345f
c15 20 0 0.147997f
c16 16 0 0.0785305f
c17 13 0 0.0472128f
c18 9 0 0.0391153f
c19 6 0 0.0180796f
c20 5 0 0.0213566f
c21 4 0 0.412662f
r22 67 68 0.0487391
r23 66 67 8
r24 61 63 0.01612
r25 58 68 0.5876
r26 56 58 0.0487391
r27 51 61 8
r28 50 51 13.2552
r29 44 46 22.5
r30 43 50 6.83636
r31 42 44 5.02856
r32 42 43 39.25
r33 38 50 8.0933
r34 38 40 91.5
r35 35 66 16.3327
r36 33 35 4.88298
r37 31 74 0.0569375
r38 31 56 8
r39 30 31 16.3327
r40 28 30 4.88298
r41 26 27 16.3327
r42 24 26 4.88298
r43 23 26 4.88298
r44 22 27 0.1282
r45 21 22 0.0100427
r46 20 21 0.0959135
r47 18 20 0.0241322
r48 18 74 0.525
r49 15 16 8
r50 13 20 0.0304114
r51 13 15 0.0714
r52 9 16 0.0351
r53 5 63 0.0255799
r54 5 6 0.078
r55 4 9 0.0418299
r56 3 6 0.0363174
r57 3 4 1.1544
.ends

.subckt PM_READ_OUT_X240.noxref_19 9 14 15 19
c0 37 0 0.114504f
c1 36 0 0.143168f
c2 33 0 0.0704416f
c3 32 0 0.0847449f
c4 28 0 0.119065f
c5 22 0 0.14278f
c6 18 0 0.135036f
c7 14 0 1.31085e-20
c8 12 0 0.12515f
r9 36 37 0.0487391
r10 33 37 0.2288
r11 31 33 0.0487391
r12 31 32 0.0487391
r13 28 32 0.2288
r14 26 28 0.0487391
r15 22 36 8
r16 21 22 16.3327
r17 19 21 4.88298
r18 18 31 8
r19 17 18 16.3327
r20 15 17 4.88298
r21 14 17 4.88298
r22 12 26 8
r23 11 12 16.3327
r24 9 11 4.88298
.ends

.subckt PM_READ_OUT_XI0.NET038 15 16 20 27 31 35 39
c0 69 0 0.106267f
c1 59 0 0.917784f
c2 58 0 0.0966282f
c3 54 0 0.104446f
c4 52 0 0.0333748f
c5 50 0 0.0969772f
c6 43 0 0.156625f
c7 39 0 0.349783f
c8 35 0 0.109061f
c9 31 0 0.27981f
c10 27 0 0.108041f
c11 23 0 0.109189f
c12 19 0 0.370512f
c13 15 0 0.00824245f
c14 14 0 0.0166751f
c15 11 0 0.151506f
c16 5 0 0.0503656f
r17 58 59 8
r18 55 59 0.6279
r19 54 69 0.0555158
r20 54 55 8
r21 47 50 5.84043
r22 47 54 13.2552
r23 43 58 13.2552
r24 41 52 1.29764
r25 41 43 13.5
r26 37 52 7.73958
r27 37 39 109.45
r28 33 52 7.73958
r29 33 35 27.3
r30 29 50 4.73303
r31 29 31 95.5
r32 25 50 4.73303
r33 25 27 29.25
r34 22 23 16.3327
r35 20 22 4.88298
r36 18 19 16.3327
r37 16 18 4.88298
r38 15 18 4.88298
r39 13 23 0.1174
r40 13 14 0.020636
r41 9 19 0.3182
r42 8 11 0.138
r43 8 9 0.00411102
r44 7 14 0.0165808
r45 7 69 0.30587
r46 5 11 0.00411102
r47 4 14 0.020636
r48 4 5 0.0816
.ends

.subckt PM_READ_OUT_XI0.NET045 15 16 20 25 32 36 40 44
c0 76 0 0.0810135f
c1 64 0 0.789184f
c2 59 0 0.102945f
c3 57 0 0.0333748f
c4 55 0 0.0959956f
c5 49 0 0.108921f
c6 48 0 0.15898f
c7 44 0 0.109206f
c8 40 0 0.343653f
c9 36 0 0.102161f
c10 32 0 0.262882f
c11 28 0 0.0730064f
c12 23 0 0.106988f
c13 19 0 0.134481f
c14 13 0 0.0652806f
c15 12 0 0.0345048f
c16 7 0 0.183124f
c17 5 0 0.0294896f
c18 4 0 0.157054f
r19 60 64 0.6279
r20 59 76 0.0555158
r21 59 60 8
r22 52 55 5.84043
r23 52 59 13.2552
r24 49 64 8
r25 48 49 13.2552
r26 46 57 1.29764
r27 46 48 13.5
r28 42 57 7.73958
r29 42 44 27.3
r30 38 57 7.73958
r31 38 40 109.45
r32 34 55 4.73303
r33 34 36 29.25
r34 30 55 4.73303
r35 30 32 95.5
r36 27 28 16.3327
r37 25 27 4.88298
r38 22 23 16.3327
r39 20 22 4.88298
r40 18 19 16.3327
r41 16 18 4.88298
r42 15 18 4.88298
r43 13 28 0.0752
r44 13 14 0.0872603
r45 11 23 0.0968
r46 11 12 0.023635
r47 10 19 0.0968
r48 9 14 0.0197334
r49 9 76 0.243478
r50 7 14 0.0290555
r51 6 12 0.023635
r52 6 7 0.434
r53 5 10 0.0413287
r54 4 12 0.0132807
r55 4 5 0.313478
.ends

.subckt PM_READ_OUT_XI0.NET9 21 22 26 31 38 44
c0 75 0 0.0318677f
c1 64 0 0.28917f
c2 63 0 0.102664f
c3 62 0 0.0796597f
c4 58 0 0.068832f
c5 55 0 0.126204f
c6 49 0 0.172435f
c7 44 0 0.0892431f
c8 40 0 0.119492f
c9 38 0 0.293985f
c10 36 0 0.124902f
c11 25 0 0.224369f
c12 21 0 0.0085212f
c13 20 0 0.0420989f
c14 18 0 0.026043f
c15 16 0 0.123795f
c16 13 0 0.386573f
c17 12 0 0.107156f
c18 10 0 0.0378023f
c19 9 0 0.0719182f
c20 8 0 0.124315f
r21 63 64 0.0421967
r22 62 63 8
r23 58 71 0.0553701
r24 58 59 8
r25 55 59 0.01053
r26 49 75 0.0532817
r27 48 49 13.2552
r28 42 44 22.5
r29 41 48 6.83636
r30 40 42 5.02856
r31 40 41 39.25
r32 36 48 8.0933
r33 36 38 91.5
r34 33 62 16.3327
r35 31 33 4.88298
r36 28 58 16.3327
r37 26 28 4.88298
r38 24 25 16.3327
r39 22 24 4.88298
r40 21 24 4.88298
r41 19 25 0.1622
r42 19 20 0.020636
r43 18 75 0.108043
r44 15 18 0.039111
r45 15 16 0.343913
r46 14 20 0.0165808
r47 13 16 0.039111
r48 13 14 0.783696
r49 12 20 0.020636
r50 11 12 0.1414
r51 9 11 0.0405408
r52 9 10 0.0784
r53 8 10 0.0391994
r54 8 71 0.292174
r55 4 55 0.0178409
r56 4 64 0.459062
.ends

.subckt PM_READ_OUT_X240.noxref_23 9 14 15 19
c0 37 0 0.0894096f
c1 36 0 0.0933327f
c2 35 0 0.126538f
c3 33 0 0.0827574f
c4 32 0 0.0921978f
c5 30 0 0.146057f
c6 28 0 0.0970822f
c7 25 0 0.12693f
c8 14 0 1.75297e-19
c9 9 0 1.58565e-19
r10 36 37 0.0421967
r11 35 36 8
r12 33 37 0.17875
r13 31 33 0.0395967
r14 31 32 0.0421967
r15 30 31 8
r16 28 32 0.179766
r17 26 28 0.0395967
r18 25 26 8
r19 21 35 16.3327
r20 19 21 4.88298
r21 17 30 16.3327
r22 15 17 4.88298
r23 14 17 4.88298
r24 11 25 16.3327
r25 9 11 4.88298
.ends

.subckt PM_READ_OUT_XI0.NET041 21 22 26 31 38 44
c0 63 0 0.318564f
c1 62 0 0.107788f
c2 61 0 0.0583152f
c3 59 0 0.118416f
c4 49 0 0.169841f
c5 44 0 0.0873647f
c6 40 0 0.123716f
c7 38 0 0.308463f
c8 36 0 0.129913f
c9 29 0 0.0897293f
c10 25 0 0.187714f
c11 21 0 0.00218355f
c12 20 0 0.0249153f
c13 18 0 0.140123f
c14 14 0 0.0336862f
c15 11 0 0.1699f
c16 10 0 0.0483568f
c17 8 0 0.168938f
r18 62 63 0.0487391
r19 61 70 0.0538578
r20 61 62 8
r21 59 63 0.5876
r22 57 59 0.0487391
r23 49 75 0.0531328
r24 48 49 13.2552
r25 42 44 22.5
r26 41 48 6.83636
r27 40 42 5.02856
r28 40 41 39.25
r29 36 48 8.0933
r30 36 38 91.5
r31 33 61 16.3327
r32 31 33 4.88298
r33 29 57 8
r34 28 29 16.3327
r35 26 28 4.88298
r36 24 25 16.3327
r37 22 24 4.88298
r38 21 24 4.88298
r39 16 25 0.1286
r40 15 18 0.114
r41 15 16 0.00411102
r42 14 75 0.123261
r43 12 20 0.00770322
r44 11 14 0.039111
r45 11 12 0.398696
r46 10 18 0.0183287
r47 9 20 0.0296412
r48 9 10 0.127217
r49 8 20 0.0296412
r50 8 70 0.40387
.ends

.subckt PM_READ_OUT_X240.noxref_25 9 14 15 19
c0 37 0 0.113517f
c1 36 0 0.119611f
c2 35 0 0.117447f
c3 33 0 0.0910748f
c4 32 0 0.109951f
c5 30 0 0.136443f
c6 28 0 0.109034f
c7 25 0 0.140838f
r8 36 37 0.0487391
r9 35 36 8
r10 33 37 0.2288
r11 31 33 0.0487391
r12 31 32 0.0487391
r13 30 31 8
r14 28 32 0.2288
r15 26 28 0.0487391
r16 25 26 8
r17 21 35 16.3327
r18 19 21 4.88298
r19 17 30 16.3327
r20 15 17 4.88298
r21 14 17 4.88298
r22 11 25 16.3327
r23 9 11 4.88298
.ends

.subckt PM_READ_OUT_X240.noxref_26 9 14 15 19
c0 37 0 0.0909575f
c1 36 0 0.0984337f
c2 33 0 0.0749353f
c3 32 0 0.0661708f
c4 28 0 0.0617187f
c5 22 0 0.116028f
c6 18 0 0.136033f
c7 12 0 0.139001f
r8 36 37 0.0487391
r9 33 37 0.2288
r10 31 33 0.0487391
r11 31 32 0.0487391
r12 28 32 0.2288
r13 26 28 0.0487391
r14 22 36 8
r15 21 22 16.3327
r16 19 21 4.88298
r17 18 31 8
r18 17 18 16.3327
r19 15 17 4.88298
r20 14 17 4.88298
r21 12 26 8
r22 11 12 16.3327
r23 9 11 4.88298
.ends

.subckt PM_READ_OUT_XI0.NET049 21 22 26 31 38 44
c0 74 0 0.012227f
c1 69 0 0.141835f
c2 63 0 0.298284f
c3 62 0 0.100727f
c4 59 0 0.112403f
c5 56 0 0.0868094f
c6 48 0 0.147965f
c7 47 0 0.127361f
c8 44 0 0.0860632f
c9 40 0 0.118924f
c10 38 0 0.293599f
c11 34 0 0.0545897f
c12 25 0 0.177742f
c13 21 0 0.00224728f
c14 20 0 0.0181587f
c15 18 0 0.149286f
c16 11 0 0.17445f
c17 8 0 0.081966f
r18 62 63 0.0487391
r19 59 63 0.5876
r20 57 59 0.0487391
r21 56 57 8
r22 48 74 0.0534307
r23 47 48 13.2552
r24 42 44 22.5
r25 41 47 6.8
r26 40 42 5.02856
r27 40 41 39.25
r28 36 47 8.12967
r29 36 38 91.5
r30 34 69 0.0538578
r31 34 62 8
r32 33 34 16.3327
r33 31 33 4.88298
r34 28 56 16.3327
r35 26 28 4.88298
r36 24 25 16.3327
r37 22 24 4.88298
r38 21 24 4.88298
r39 16 25 0.1282
r40 15 18 0.114
r41 15 16 0.00411102
r42 13 74 0.0486957
r43 12 20 0.00770322
r44 11 13 0.039111
r45 11 12 0.386522
r46 9 20 0.0296412
r47 9 69 0.329304
r48 8 20 0.0296412
r49 7 18 0.0183287
r50 7 8 0.201783
.ends

.subckt PM_READ_OUT_XI0.NET16 21 22 26 31 38 44
c0 74 0 0.038331f
c1 69 0 0.175159f
c2 63 0 0.283285f
c3 62 0 0.114203f
c4 61 0 0.0864524f
c5 59 0 0.100211f
c6 48 0 0.147066f
c7 47 0 0.127472f
c8 44 0 0.285572f
c9 41 0 0.0237429f
c10 40 0 0.0945976f
c11 38 0 0.0845795f
c12 29 0 0.0548637f
c13 25 0 0.186174f
c14 21 0 0.00213552f
c15 20 0 0.0223128f
c16 17 0 0.14032f
c17 12 0 0.0435148f
c18 10 0 0.0264267f
c19 9 0 0.116861f
r20 62 63 0.0487391
r21 61 62 8
r22 59 63 0.5876
r23 57 59 0.0487391
r24 48 74 0.0534307
r25 47 48 13.2552
r26 42 47 8.12967
r27 42 44 91.5
r28 40 47 6.8
r29 40 41 39.25
r30 36 41 5.02856
r31 36 38 22.5
r32 33 61 16.3327
r33 31 33 4.88298
r34 29 69 0.0538578
r35 29 57 8
r36 28 29 16.3327
r37 26 28 4.88298
r38 24 25 16.3327
r39 22 24 4.88298
r40 21 24 4.88298
r41 18 25 0.1282
r42 17 18 0.00411102
r43 15 17 0.114
r44 13 20 0.0296412
r45 13 69 0.423652
r46 12 20 0.0296412
r47 11 15 0.0183287
r48 11 12 0.107435
r49 9 20 0.00770322
r50 9 10 0.386522
r51 7 10 0.039111
r52 7 74 0.143043
.ends

.subckt PM_READ_OUT_X240.noxref_29 9 14 15 19
c0 37 0 0.0989993f
c1 36 0 0.076994f
c2 33 0 0.0962286f
c3 32 0 0.11925f
c4 28 0 0.129926f
c5 22 0 0.139154f
c6 18 0 0.13671f
c7 12 0 0.117856f
r8 36 37 0.0487391
r9 33 37 0.2288
r10 31 33 0.0487391
r11 31 32 0.0487391
r12 28 32 0.2288
r13 26 28 0.0487391
r14 22 36 8
r15 21 22 16.3327
r16 19 21 4.88298
r17 18 31 8
r18 17 18 16.3327
r19 15 17 4.88298
r20 14 17 4.88298
r21 12 26 8
r22 11 12 16.3327
r23 9 11 4.88298
.ends

.subckt PM_READ_OUT_XI0.NET14 13 14 18 30 34 38 42
c0 59 0 0.11248f
c1 58 0 0.0708706f
c2 51 0 0.713661f
c3 49 0 0.119205f
c4 48 0 0.0957313f
c5 44 0 0.0333748f
c6 42 0 0.101198f
c7 38 0 0.269993f
c8 34 0 0.110642f
c9 30 0 0.350935f
c10 26 0 0.0939284f
c11 23 0 0.160074f
c12 21 0 0.13758f
c13 17 0 0.335115f
c14 10 0 0.130818f
c15 2 0 0.00661806f
r16 58 59 0.0488691
r17 57 58 8
r18 51 63 0.0160646
r19 51 54 0.6058
r20 49 63 8
r21 48 49 13.2552
r22 45 48 5.84043
r23 40 45 4.73303
r24 40 42 29.25
r25 36 45 4.73303
r26 36 38 95.5
r27 32 44 7.73958
r28 32 34 27.3
r29 28 44 7.73958
r30 28 30 109.45
r31 26 54 8
r32 25 26 13.2552
r33 23 44 1.29764
r34 23 25 13.5
r35 21 57 0.1996
r36 20 21 16.3327
r37 18 20 4.88298
r38 16 17 16.3327
r39 14 16 4.88298
r40 13 16 4.88298
r41 11 57 0.0454
r42 10 11 0.00411102
r43 8 17 0.3182
r44 7 10 0.138
r45 7 8 0.00411102
r46 2 63 0.0257654
r47 2 59 0.75244
.ends

.subckt PM_READ_OUT_XI0.XI26.NET4 7 12 21
c0 33 0 0.0432139f
c1 27 0 0.0928962f
c2 25 0 0.124019f
c3 21 0 0.196135f
c4 17 0 0.0950457f
c5 15 0 0.185683f
c6 10 0 0.313105f
c7 9 0 0.00245806f
c8 6 0 0.0323577f
r9 25 33 0.0532817
r10 24 27 8.07022
r11 24 25 13.2552
r12 19 21 50.75
r13 17 19 5.02856
r14 17 27 25.75
r15 14 15 16.3327
r16 12 14 4.59
r17 9 10 16.3327
r18 7 9 2.55
r19 5 10 0.3342
r20 5 6 0.020636
r21 4 15 0.2198
r22 4 6 0.020636
r23 3 6 0.0165808
r24 3 33 0.121739
.ends

.subckt PM_READ_OUT_XI0.XI23.NET4 7 12 21
c0 33 0 0.0454709f
c1 27 0 0.0942085f
c2 25 0 0.12993f
c3 21 0 0.208074f
c4 17 0 0.0944186f
c5 15 0 0.210483f
c6 12 0 0.00531052f
c7 10 0 0.305393f
c8 9 0 0.00730489f
c9 6 0 0.0311659f
r10 25 33 0.0532817
r11 24 27 8.07022
r12 24 25 13.2552
r13 19 21 50.75
r14 17 19 5.02856
r15 17 27 25.75
r16 14 15 16.3327
r17 12 14 4.59
r18 9 10 16.3327
r19 7 9 2.55
r20 5 10 0.3342
r21 5 6 0.020636
r22 4 15 0.2198
r23 4 6 0.020636
r24 3 6 0.0165808
r25 3 33 0.121739
.ends

.subckt PM_READ_OUT_XI0.XI26.NET8 10 15 22 32
c0 41 0 0.0277456f
c1 40 0 0.306835f
c2 39 0 0.0945749f
c3 36 0 0.0656662f
c4 32 0 0.194664f
c5 29 0 0.0281369f
c6 28 0 0.142086f
c7 25 0 0.0420853f
c8 22 0 0.133939f
c9 18 0 0.116171f
c10 13 0 0.296502f
c11 9 0 0.0477307f
c12 6 0 0.0416227f
c13 3 0 0.0914908f
r14 39 42 8.05107
r15 39 41 8.08937
r16 39 40 13.2552
r17 34 36 13
r18 30 32 46
r19 28 30 5.02856
r20 28 29 36.75
r21 26 29 5.02856
r22 26 41 12.5
r23 25 36 0.528559
r24 25 42 16.5
r25 20 34 0.528559
r26 20 22 32.5
r27 17 18 16.3327
r28 15 17 4.59
r29 12 13 16.3327
r30 10 12 2.55
r31 8 40 0.203298
r32 8 9 0.001755
r33 7 13 0.2332
r34 7 9 0.0375995
r35 5 18 0.1008
r36 5 6 0.0318812
r37 3 9 0.0375995
r38 3 6 0.126
.ends

.subckt PM_READ_OUT_XI0.XI23.NET8 10 15 22 32
c0 41 0 0.0306282f
c1 40 0 0.327804f
c2 39 0 0.0942339f
c3 36 0 0.0634288f
c4 32 0 0.208975f
c5 29 0 0.0281224f
c6 28 0 0.139236f
c7 25 0 0.042248f
c8 22 0 0.143732f
c9 18 0 0.128632f
c10 15 0 0.00531052f
c11 13 0 0.319013f
c12 12 0 0.0184225f
c13 9 0 0.0451879f
c14 6 0 0.0445436f
c15 3 0 0.118126f
r16 39 42 8.05107
r17 39 41 8.08937
r18 39 40 13.2552
r19 34 36 13
r20 30 32 46
r21 28 30 5.02856
r22 28 29 36.75
r23 26 29 5.02856
r24 26 41 12.5
r25 25 36 0.528559
r26 25 42 16.5
r27 20 34 0.528559
r28 20 22 32.5
r29 17 18 16.3327
r30 15 17 4.59
r31 12 13 16.3327
r32 10 12 2.55
r33 8 40 0.203298
r34 8 9 0.001755
r35 7 13 0.2332
r36 7 9 0.0375995
r37 5 18 0.1008
r38 5 6 0.0318812
r39 3 9 0.0375995
r40 3 6 0.126
.ends

.subckt PM_READ_OUT_XI0.XI33.~A 6 11 18 22
c0 29 0 0.0486345f
c1 26 0 0.0696655f
c2 22 0 0.30804f
c3 18 0 0.121764f
c4 14 0 0.413878f
c5 11 0 0.00104838f
c6 9 0 0.14936f
c7 6 0 0.00842418f
c8 5 0 0.0534933f
c9 4 0 0.163321f
r10 26 27 13.2552
r11 24 29 1.29764
r12 24 26 4.59574
r13 20 29 7.73958
r14 20 22 108.7
r15 16 29 7.73958
r16 16 18 28.05
r17 13 14 16.3327
r18 11 13 4.88298
r19 8 9 8.16635
r20 6 8 2.41579
r21 4 27 0.105745
r22 4 5 0.001755
r23 3 14 0.435
r24 3 5 0.0375995
r25 2 9 0.112
r26 2 5 0.0375995
.ends

.subckt PM_READ_OUT_XI0.XI35.~A 6 11 23 27
c0 29 0 0.0471954f
c1 27 0 0.119387f
c2 23 0 0.305681f
c3 19 0 0.170848f
c4 16 0 0.07082f
c5 14 0 0.396914f
c6 13 0 0.0170682f
c7 9 0 0.144427f
c8 8 0 0.00298054f
c9 5 0 0.0555871f
r10 25 29 7.73958
r11 25 27 28.05
r12 21 29 7.73958
r13 21 23 108.7
r14 18 19 13.2552
r15 16 29 1.29764
r16 16 18 4.59574
r17 13 14 16.3327
r18 11 13 4.88298
r19 8 9 8.16635
r20 6 8 2.41579
r21 4 19 0.105745
r22 4 5 0.001755
r23 3 9 0.0164
r24 3 5 0.0375995
r25 2 14 0.4346
r26 2 5 0.0375995
.ends

.subckt PM_READ_OUT_XI0.XI38.~A 6 11 23 27
c0 29 0 0.043507f
c1 27 0 0.301556f
c2 23 0 0.119056f
c3 19 0 0.134698f
c4 16 0 0.0696431f
c5 14 0 0.355472f
c6 9 0 0.136517f
c7 5 0 0.036303f
r8 25 29 7.73958
r9 25 27 108.7
r10 21 29 7.73958
r11 21 23 28.05
r12 18 19 13.2552
r13 16 29 1.29764
r14 16 18 4.59574
r15 13 14 16.3327
r16 11 13 4.88298
r17 8 9 8.16635
r18 6 8 2.41579
r19 4 19 0.105745
r20 4 5 0.001755
r21 3 14 0.435
r22 3 5 0.0375995
r23 2 9 0.112
r24 2 5 0.0375995
.ends

.subckt PM_READ_OUT_XI0.XI25.NET8 10 15 22 32
c0 41 0 0.067788f
c1 37 0 0.0425689f
c2 35 0 0.0949111f
c3 32 0 0.145651f
c4 27 0 0.0291343f
c5 25 0 0.0317702f
c6 24 0 0.139548f
c7 22 0 0.205381f
c8 18 0 0.117708f
c9 13 0 0.325864f
c10 10 0 0.0107824f
c11 9 0 0.0419139f
c12 8 0 0.094042f
c13 6 0 0.0451887f
c14 5 0 0.308869f
r15 39 41 13
r16 35 38 8.05107
r17 35 37 8.08937
r18 35 36 13.2552
r19 30 41 0.528559
r20 30 32 32.5
r21 28 39 0.528559
r22 28 37 16.5
r23 27 38 12.5
r24 24 27 5.02856
r25 24 25 36.75
r26 20 25 5.02856
r27 20 22 46
r28 17 18 16.3327
r29 15 17 4.59
r30 12 13 16.3327
r31 10 12 2.55
r32 9 18 0.1012
r33 8 9 0.0318812
r34 5 36 0.203298
r35 5 6 0.001755
r36 4 13 0.2328
r37 4 6 0.0375995
r38 2 6 0.0375995
r39 2 8 0.126
.ends

.subckt PM_READ_OUT_XI0.XI24.NET4 7 12 21
c0 33 0 0.0417503f
c1 27 0 0.0928617f
c2 25 0 0.12459f
c3 21 0 0.201499f
c4 17 0 0.0947605f
c5 15 0 0.196299f
c6 12 0 0.00480086f
c7 10 0 0.34091f
c8 9 0 0.00921534f
c9 6 0 0.0324123f
r10 25 33 0.0532817
r11 24 27 8.07022
r12 24 25 13.2552
r13 19 21 50.75
r14 17 19 5.02856
r15 17 27 25.75
r16 14 15 16.3327
r17 12 14 4.59
r18 9 10 16.3327
r19 7 9 2.55
r20 5 10 0.3342
r21 5 6 0.020636
r22 4 15 0.2198
r23 4 6 0.020636
r24 3 6 0.0165808
r25 3 33 0.121739
.ends

.subckt PM_READ_OUT_XI0.XI25.NET4 7 12 19
c0 34 0 0.125022f
c1 26 0 0.0622631f
c2 24 0 0.0928936f
c3 22 0 0.0328751f
c4 19 0 0.198375f
c5 15 0 0.182713f
c6 10 0 0.335327f
c7 7 0 0.0050135f
c8 6 0 0.0341876f
c9 2 0 0.0416604f
r10 25 34 0.0532817
r11 24 26 8.07022
r12 24 25 13.2552
r13 22 26 25.75
r14 17 22 5.02856
r15 17 19 50.75
r16 14 15 16.3327
r17 12 14 4.59
r18 9 10 16.3327
r19 7 9 2.55
r20 5 15 0.2202
r21 5 6 0.020636
r22 4 10 0.3338
r23 4 6 0.020636
r24 2 6 0.0165808
r25 2 34 0.121739
.ends

.subckt PM_READ_OUT_XI0.XI24.NET8 10 15 22 32
c0 41 0 0.0292146f
c1 40 0 0.307411f
c2 39 0 0.0942339f
c3 36 0 0.0674714f
c4 32 0 0.206437f
c5 29 0 0.028429f
c6 28 0 0.141693f
c7 25 0 0.0406766f
c8 22 0 0.141945f
c9 18 0 0.132495f
c10 15 0 0.00480086f
c11 13 0 0.313309f
c12 12 0 0.00860138f
c13 9 0 0.0451886f
c14 6 0 0.0424183f
c15 3 0 0.0920504f
r16 39 42 8.05107
r17 39 41 8.08937
r18 39 40 13.2552
r19 34 36 13
r20 30 32 46
r21 28 30 5.02856
r22 28 29 36.75
r23 26 29 5.02856
r24 26 41 12.5
r25 25 36 0.528559
r26 25 42 16.5
r27 20 34 0.528559
r28 20 22 32.5
r29 17 18 16.3327
r30 15 17 4.59
r31 12 13 16.3327
r32 10 12 2.55
r33 8 40 0.203298
r34 8 9 0.001755
r35 7 13 0.2332
r36 7 9 0.0375995
r37 5 18 0.1008
r38 5 6 0.0318812
r39 3 9 0.0375995
r40 3 6 0.126
.ends

.subckt PM_READ_OUT_XI0.XI36.NET4 7 12 21
c0 33 0 0.0440691f
c1 27 0 0.09474f
c2 25 0 0.13324f
c3 21 0 0.198127f
c4 17 0 0.095899f
c5 15 0 0.193322f
c6 12 0 0.0019184f
c7 10 0 0.351076f
c8 9 0 0.00684088f
c9 6 0 0.0365548f
r10 25 33 0.0532817
r11 24 27 8.07022
r12 24 25 13.2552
r13 19 21 50.75
r14 17 19 5.02856
r15 17 27 25.75
r16 14 15 16.3327
r17 12 14 4.59
r18 9 10 16.3327
r19 7 9 2.55
r20 5 10 0.3342
r21 5 6 0.020636
r22 4 15 0.2198
r23 4 6 0.020636
r24 3 6 0.0165808
r25 3 33 0.121739
.ends

.subckt PM_READ_OUT_XI0.XI27.NET4 7 12 21
c0 33 0 0.0445934f
c1 27 0 0.0942232f
c2 25 0 0.127f
c3 21 0 0.197495f
c4 17 0 0.0939704f
c5 15 0 0.189255f
c6 10 0 0.325786f
c7 9 0 0.00787989f
c8 6 0 0.0341342f
r9 25 33 0.0532817
r10 24 27 8.07022
r11 24 25 13.2552
r12 19 21 50.75
r13 17 19 5.02856
r14 17 27 25.75
r15 14 15 16.3327
r16 12 14 4.59
r17 9 10 16.3327
r18 7 9 2.55
r19 5 15 0.2202
r20 5 6 0.020636
r21 4 10 0.3338
r22 4 6 0.020636
r23 3 6 0.0165808
r24 3 33 0.121739
.ends

.subckt PM_READ_OUT_XI0.XI36.NET8 10 15 22 32
c0 41 0 0.0291026f
c1 40 0 0.309015f
c2 39 0 0.0945749f
c3 36 0 0.0674714f
c4 32 0 0.194748f
c5 29 0 0.0281369f
c6 28 0 0.143386f
c7 25 0 0.0421282f
c8 22 0 0.143037f
c9 18 0 0.122158f
c10 13 0 0.322464f
c11 12 0 0.0078188f
c12 9 0 0.0497308f
c13 6 0 0.0435208f
c14 3 0 0.0958886f
r15 39 42 8.05107
r16 39 41 8.08937
r17 39 40 13.2552
r18 34 36 13
r19 30 32 46
r20 28 30 5.02856
r21 28 29 36.75
r22 26 29 5.02856
r23 26 41 12.5
r24 25 36 0.528559
r25 25 42 16.5
r26 20 34 0.528559
r27 20 22 32.5
r28 17 18 16.3327
r29 15 17 4.59
r30 12 13 16.3327
r31 10 12 2.55
r32 8 40 0.203298
r33 8 9 0.001755
r34 7 13 0.2332
r35 7 9 0.0375995
r36 5 18 0.1008
r37 5 6 0.0318812
r38 3 9 0.0375995
r39 3 6 0.126
.ends

.subckt PM_READ_OUT_XI0.XI27.NET8 10 15 22 32
c0 41 0 0.0406766f
c1 40 0 0.306423f
c2 39 0 0.0942094f
c3 36 0 0.0674714f
c4 32 0 0.203751f
c5 29 0 0.028136f
c6 28 0 0.1413f
c7 27 0 0.0293048f
c8 22 0 0.142552f
c9 18 0 0.118512f
c10 13 0 0.311621f
c11 12 0 0.00900559f
c12 9 0 0.0467953f
c13 6 0 0.0422735f
c14 5 0 0.0949689f
r15 39 42 8.05107
r16 39 41 8.08937
r17 39 40 13.2552
r18 34 36 13
r19 30 32 46
r20 28 30 5.02856
r21 28 29 36.75
r22 27 29 5.02856
r23 27 42 12.5
r24 24 36 0.528559
r25 24 41 16.5
r26 20 34 0.528559
r27 20 22 32.5
r28 17 18 16.3327
r29 15 17 4.59
r30 12 13 16.3327
r31 10 12 2.55
r32 8 40 0.203298
r33 8 9 0.001755
r34 7 13 0.2328
r35 7 9 0.0375995
r36 6 18 0.1012
r37 5 6 0.0318812
r38 2 9 0.0375995
r39 2 5 0.126
.ends

.subckt PM_READ_OUT_XI0.XI31.~A 6 11 18 22
c0 29 0 0.0459556f
c1 26 0 0.0718973f
c2 22 0 0.304699f
c3 18 0 0.121098f
c4 14 0 0.352352f
c5 9 0 0.143327f
c6 6 0 0.0140161f
c7 5 0 0.0406571f
c8 4 0 0.141178f
r9 26 27 13.2552
r10 24 29 1.29764
r11 24 26 4.59574
r12 20 29 7.73958
r13 20 22 108.7
r14 16 29 7.73958
r15 16 18 28.05
r16 13 14 16.3327
r17 11 13 4.88298
r18 8 9 8.16635
r19 6 8 2.41579
r20 4 27 0.105745
r21 4 5 0.001755
r22 3 14 0.435
r23 3 5 0.0375995
r24 2 9 0.112
r25 2 5 0.0375995
.ends

.subckt PM_READ_OUT_XI0.XI26.NET32 1 2
c0 1 0 0.00777867f
r1 1 2 2.5
.ends

.subckt PM_READ_OUT_XI0.XI23.NET32 1 2
c0 1 0 0.0130445f
r1 1 2 2.5
.ends

.subckt PM_READ_OUT_XI0.XI32.NET36 1 2
c0 1 0 0.022575f
r1 1 2 4.83158
.ends

.subckt PM_READ_OUT_XI0.XI32.NET37 1 2
c0 1 0 0.0251053f
r1 1 2 4.83158
.ends

.subckt PM_READ_OUT_XI0.XI24.NET32 1 2
c0 1 0 0.016446f
r1 1 2 2.5
.ends

.subckt PM_READ_OUT_XI0.XI25.NET32 1 2
c0 1 0 0.00894079f
r1 1 2 2.5
.ends

.subckt PM_READ_OUT_XI0.XI36.NET32 1 2
c0 1 0 0.0128044f
r1 1 2 2.5
.ends

.subckt PM_READ_OUT_XI0.XI27.NET32 1 2
c0 1 0 0.0140712f
r1 1 2 2.5
.ends

.subckt PM_READ_OUT_X240.noxref_55 1 2
c0 1 0 0.0193605f
r1 1 2 9.76596
.ends

.subckt PM_READ_OUT_X240.noxref_56 1 2
c0 1 0 0.0126371f
r1 1 2 9.76596
.ends

.subckt PM_READ_OUT_XI0.XI26.NET31 1 2
r0 1 2 4.5
.ends

.subckt PM_READ_OUT_XI0.XI23.NET31 1 2
c0 1 0 0.00947982f
r1 1 2 4.5
.ends

.subckt PM_READ_OUT_XI0.XI26.NET30 1 2
r0 1 2 4.5
.ends

.subckt PM_READ_OUT_XI0.XI23.NET30 1 2
c0 1 0 0.00648802f
r1 1 2 4.5
.ends

.subckt PM_READ_OUT_XI0.XI37.NET014 1 2
r0 1 2 9.76596
.ends

.subckt PM_READ_OUT_XI0.XI34.NET019 1 2
c0 1 0 0.00887375f
r1 1 2 9.76596
.ends

.subckt PM_READ_OUT_XI0.XI37.NET37 1 2
r0 1 2 9.76596
.ends

.subckt PM_READ_OUT_X240.noxref_64 1 2
c0 1 0 0.00725788f
r1 1 2 9.76596
.ends

.subckt PM_READ_OUT_X240.noxref_65 1 2
c0 1 0 0.00699359f
r1 1 2 9.76596
.ends

.subckt PM_READ_OUT_XI0.XI25.NET30 1 2
c0 1 0 0.0159993f
r1 1 2 4.5
.ends

.subckt PM_READ_OUT_XI0.XI25.NET31 1 2
r0 1 2 4.5
.ends

.subckt PM_READ_OUT_X240.noxref_68 1 2
c0 1 0 0.0067248f
r1 1 2 9.76596
.ends

.subckt PM_READ_OUT_X240.noxref_69 1 2
c0 1 0 0.0067248f
r1 1 2 9.76596
.ends

.subckt PM_READ_OUT_X240.noxref_70 1 2
c0 1 0 0.0067248f
r1 1 2 9.76596
.ends

.subckt PM_READ_OUT_X240.noxref_71 1 2
c0 1 0 0.0067248f
r1 1 2 9.76596
.ends

.subckt PM_READ_OUT_XI0.XI24.NET31 1 2
c0 1 0 0.00643564f
r1 1 2 4.5
.ends

.subckt PM_READ_OUT_XI0.XI24.NET30 1 2
c0 1 0 0.0153078f
r1 1 2 4.5
.ends

.subckt PM_READ_OUT_X240.noxref_74 1 2
c0 1 0 0.0067248f
r1 1 2 9.76596
.ends

.subckt PM_READ_OUT_X240.noxref_75 1 2
c0 1 0 0.0067248f
r1 1 2 9.76596
.ends

.subckt PM_READ_OUT_XI0.XI36.NET31 1 2
r0 1 2 4.5
.ends

.subckt PM_READ_OUT_XI0.XI27.NET31 1 2
r0 1 2 4.5
.ends

.subckt PM_READ_OUT_XI0.XI30.NET019 1 2
r0 1 2 9.76596
.ends

.subckt PM_READ_OUT_XI0.XI36.NET30 1 2
c0 1 0 0.00880094f
r1 1 2 4.5
.ends

.subckt PM_READ_OUT_XI0.XI27.NET30 1 2
c0 1 0 0.00667131f
r1 1 2 4.5
.ends

.subckt PM_READ_OUT_EN 17 60 64 68 72 76 80 84 88 110 114 118 122 126 130 134
+ 138
c0 256 0 1.37807f
c1 255 0 0.0294858f
c2 252 0 0.0199714f
c3 221 0 0.172327f
c4 217 0 0.904272f
c5 216 0 0.155671f
c6 212 0 0.164888f
c7 208 0 1.01445f
c8 207 0 0.154397f
c9 203 0 0.176308f
c10 199 0 1.03621f
c11 198 0 0.155671f
c12 194 0 0.164888f
c13 190 0 1.01306f
c14 189 0 0.154397f
c15 185 0 0.141623f
c16 176 0 0.141154f
c17 171 0 0.139237f
c18 166 0 0.142144f
c19 157 0 0.141154f
c20 152 0 0.139237f
c21 149 0 0.596132f
c22 147 0 0.60558f
c23 144 0 0.0494249f
c24 143 0 0.0270746f
c25 142 0 0.0845328f
c26 141 0 0.0270087f
c27 140 0 0.0845328f
c28 138 0 0.205357f
c29 134 0 0.210126f
c30 130 0 0.209481f
c31 128 0 0.0915206f
c32 126 0 0.205248f
c33 122 0 0.20535f
c34 118 0 0.209534f
c35 114 0 0.209481f
c36 110 0 0.205248f
c37 107 0 0.0240446f
c38 106 0 0.087544f
c39 105 0 0.0240446f
c40 104 0 0.0874968f
c41 103 0 0.597569f
c42 101 0 0.605674f
c43 99 0 0.61641f
c44 97 0 0.60558f
c45 94 0 0.0494249f
c46 93 0 0.0264652f
c47 92 0 0.0852827f
c48 91 0 0.0270087f
c49 90 0 0.0845328f
c50 88 0 0.209646f
c51 84 0 0.210126f
c52 80 0 0.209481f
c53 78 0 0.0915206f
c54 76 0 0.205333f
c55 72 0 0.20535f
c56 68 0 0.209534f
c57 64 0 0.209481f
c58 60 0 0.205333f
c59 57 0 0.0240446f
c60 56 0 0.087544f
c61 55 0 0.0240446f
c62 54 0 0.0874968f
c63 53 0 0.597569f
c64 51 0 0.605674f
c65 48 0 0.0714489f
c66 46 0 0.0245967f
c67 45 0 0.089948f
c68 42 0 0.021545f
c69 41 0 0.0895719f
c70 37 0 0.963772f
c71 22 0 1.43396f
r72 255 256 0.0487391
r73 250 252 0.0487391
r74 221 222 8
r75 216 217 8
r76 212 213 8
r77 207 208 8
r78 203 204 8
r79 198 199 8
r80 194 195 8
r81 189 190 8
r82 185 221 13.2552
r83 183 185 3.7936
r84 181 216 13.2552
r85 179 181 2.90385
r86 176 178 3.7936
r87 176 212 13.2552
r88 171 173 3.7936
r89 171 207 13.2552
r90 166 203 13.2552
r91 164 166 3.7936
r92 162 198 13.2552
r93 160 162 2.90385
r94 157 159 3.7936
r95 157 194 13.2552
r96 152 154 3.7936
r97 152 189 13.2552
r98 148 185 13.2122
r99 148 149 209.75
r100 146 147 212.75
r101 145 179 4.71363
r102 144 147 5.02856
r103 144 145 9.25
r104 142 149 5.02856
r105 142 143 23.5
r106 140 146 5.02856
r107 140 141 23.5
r108 136 143 5.02856
r109 136 138 56.75
r110 132 183 3.3427
r111 132 134 66.5
r112 128 181 8.04827
r113 128 130 66.25
r114 124 141 5.02856
r115 124 126 56.75
r116 120 122 56.75
r117 116 178 3.3427
r118 116 118 66.25
r119 112 173 3.3427
r120 112 114 66.25
r121 108 110 56.75
r122 106 120 5.02856
r123 106 107 23.5
r124 104 108 5.02856
r125 104 105 23.5
r126 103 107 5.02856
r127 102 176 13.2122
r128 102 103 210
r129 101 171 13.2122
r130 100 105 5.02856
r131 100 101 213
r132 98 166 13.2122
r133 98 99 209.75
r134 96 97 212.75
r135 95 160 4.71363
r136 94 97 5.02856
r137 94 95 9.25
r138 92 99 5.02856
r139 92 93 23.5
r140 90 96 5.02856
r141 90 91 23.5
r142 86 93 5.02856
r143 86 88 56.75
r144 82 164 3.3427
r145 82 84 66.5
r146 78 162 8.04827
r147 78 80 66.25
r148 74 91 5.02856
r149 74 76 56.75
r150 70 72 56.75
r151 66 159 3.3427
r152 66 68 66.25
r153 62 154 3.3427
r154 62 64 66.25
r155 58 60 56.75
r156 56 70 5.02856
r157 56 57 23.5
r158 54 58 5.02856
r159 54 55 23.5
r160 53 57 5.02856
r161 52 157 13.2122
r162 52 53 210
r163 51 152 13.2122
r164 50 55 5.02856
r165 50 51 213
r166 46 255 8
r167 45 48 0.04888
r168 45 46 8
r169 42 250 8
r170 41 43 0.0462167
r171 41 42 8
r172 38 222 0.5837
r173 38 217 0.11765
r174 37 38 8
r175 35 213 0.58305
r176 35 208 0.11765
r177 34 37 1.5288
r178 34 35 8
r179 32 48 0.0255799
r180 32 34 0.9087
r181 29 204 0.5837
r182 29 199 0.11765
r183 28 29 8
r184 25 195 0.58305
r185 25 190 0.11765
r186 24 28 1.5288
r187 24 25 8
r188 22 43 0.0271925
r189 22 28 0.7891
r190 17 256 6.253
r191 17 252 0.4394
.ends

.subckt PM_READ_OUT_NET38 24 29 30 34 41 47 51 55 59 63 67 71 155 159 163 169
+ 173 179 183 187
c0 236 0 0.364488f
c1 217 0 1.4279f
c2 214 0 0.0148705f
c3 213 0 0.0142168f
c4 212 0 0.0152335f
c5 211 0 0.0151433f
c6 209 0 0.0742614f
c7 208 0 0.132491f
c8 207 0 0.0932141f
c9 203 0 0.142469f
c10 202 0 0.0938743f
c11 200 0 0.357637f
c12 198 0 0.339372f
c13 195 0 0.117213f
c14 193 0 0.114402f
c15 191 0 0.113085f
c16 189 0 0.117047f
c17 187 0 0.336275f
c18 183 0 0.0842899f
c19 179 0 0.0840474f
c20 176 0 0.0693102f
c21 173 0 0.243828f
c22 169 0 0.246595f
c23 163 0 0.0884021f
c24 159 0 0.0886446f
c25 155 0 0.330814f
c26 148 0 0.0356647f
c27 147 0 0.011662f
c28 144 0 0.68381f
c29 143 0 2.93168f
c30 134 0 0.00936101f
c31 129 0 0.0402778f
c32 107 0 0.34409f
c33 106 0 0.122951f
c34 105 0 0.0752225f
c35 100 0 0.0429693f
c36 96 0 0.10349f
c37 88 0 0.0975943f
c38 83 0 0.0827785f
c39 79 0 0.0854184f
c40 78 0 0.0823904f
c41 76 0 0.0513972f
c42 71 0 0.379434f
c43 67 0 0.116175f
c44 63 0 0.276787f
c45 59 0 0.127743f
c46 55 0 0.178156f
c47 51 0 0.229186f
c48 47 0 0.0876273f
c49 43 0 0.12099f
c50 41 0 0.290104f
c51 39 0 0.120346f
c52 37 0 0.132754f
c53 34 0 0.0057528f
c54 33 0 0.235188f
c55 29 0 0.0154249f
c56 27 0 0.219425f
c57 24 0 0.0143247f
c58 23 0 0.0514794f
c59 19 0 0.115937f
c60 18 0 0.0980622f
c61 16 0 0.118084f
c62 15 0 0.0358162f
c63 14 0 0.114516f
c64 13 0 0.0712674f
c65 12 0 0.179351f
c66 5 0 0.383422f
c67 2 0 0.55545f
r68 208 217 8
r69 207 210 8.05107
r70 207 209 8.08937
r71 207 208 13.2552