* File: /home/IC/final/READ/read_out.pex.spi
* Created: Thu Apr  3 17:16:18 2025
* Program "Calibre xRC"
* Version "v2019.3_15.11"
* 
.include "/home/IC/final/READ/read_out.pex.spi.pex"
.subckt read_out  EN RST CLK BL1 BL3 BL5 BL7 BL0 BL2 BL4 BL6 VSS VDD WL1 WL3 WL5
+ WL7 WL0 WL2 WL4 WL6
* 
* WL6	WL6
* WL4	WL4
* WL2	WL2
* WL0	WL0
* WL7	WL7
* WL5	WL5
* WL3	WL3
* WL1	WL1
* VDD	VDD
* VSS	VSS
* BL6	BL6
* BL4	BL4
* BL2	BL2
* BL0	BL0
* BL7	BL7
* BL5	BL5
* BL3	BL3
* BL1	BL1
* CLK	CLK
* RST	RST
* EN	EN
mXI1.XI52.MM14 N_BL1_XI1.XI52.MM14_d N_XI1.XI52.NET031_XI1.XI52.MM14_g
+ N_VSS_XI1.XI52.MM14_s N_VSS_XI0.XI33.MM7_b N_18 L=1.8e-07 W=8e-07 AD=2.04e-13
+ AS=3.92e-13 PD=5.1e-07 PS=1.78e-06
mXI1.XI54.MM14 N_BL3_XI1.XI54.MM14_d N_XI1.XI54.NET031_XI1.XI54.MM14_g
+ N_VSS_XI1.XI54.MM14_s N_VSS_XI0.XI33.MM7_b N_18 L=1.8e-07 W=8e-07 AD=2.04e-13
+ AS=3.92e-13 PD=5.1e-07 PS=1.78e-06
mXI1.XI56.MM14 N_BL5_XI1.XI56.MM14_d N_XI1.XI56.NET031_XI1.XI56.MM14_g
+ N_VSS_XI1.XI56.MM14_s N_VSS_XI0.XI33.MM7_b N_18 L=1.8e-07 W=8e-07 AD=2.04e-13
+ AS=3.92e-13 PD=5.1e-07 PS=1.78e-06
mXI1.XI58.MM14 N_BL7_XI1.XI58.MM14_d N_XI1.XI58.NET031_XI1.XI58.MM14_g
+ N_VSS_XI1.XI58.MM14_s N_VSS_XI0.XI33.MM7_b N_18 L=1.8e-07 W=8e-07 AD=2.04e-13
+ AS=3.92e-13 PD=5.1e-07 PS=1.78e-06
mXI1.XI52.MM14@4 N_BL1_XI1.XI52.MM14@4_d N_XI1.XI52.NET031_XI1.XI52.MM14@4_g
+ N_VSS_XI1.XI52.MM14@4_s N_VSS_XI0.XI33.MM7_b N_18 L=1.8e-07 W=8e-07
+ AD=2.04e-13 AS=2.04e-13 PD=5.1e-07 PS=5.1e-07
mXI1.XI54.MM14@4 N_BL3_XI1.XI54.MM14@4_d N_XI1.XI54.NET031_XI1.XI54.MM14@4_g
+ N_VSS_XI1.XI54.MM14@4_s N_VSS_XI0.XI33.MM7_b N_18 L=1.8e-07 W=8e-07
+ AD=2.04e-13 AS=2.04e-13 PD=5.1e-07 PS=5.1e-07
mXI1.XI56.MM14@4 N_BL5_XI1.XI56.MM14@4_d N_XI1.XI56.NET031_XI1.XI56.MM14@4_g
+ N_VSS_XI1.XI56.MM14@4_s N_VSS_XI0.XI33.MM7_b N_18 L=1.8e-07 W=8e-07
+ AD=2.04e-13 AS=2.04e-13 PD=5.1e-07 PS=5.1e-07
mXI1.XI58.MM14@4 N_BL7_XI1.XI58.MM14@4_d N_XI1.XI58.NET031_XI1.XI58.MM14@4_g
+ N_VSS_XI1.XI58.MM14@4_s N_VSS_XI0.XI33.MM7_b N_18 L=1.8e-07 W=8e-07
+ AD=2.04e-13 AS=2.04e-13 PD=5.1e-07 PS=5.1e-07
mXI1.XI52.MM14@3 N_BL1_XI1.XI52.MM14@3_d N_XI1.XI52.NET031_XI1.XI52.MM14@3_g
+ N_VSS_XI1.XI52.MM14@3_s N_VSS_XI0.XI33.MM7_b N_18 L=1.8e-07 W=8e-07
+ AD=2.04e-13 AS=2.04e-13 PD=5.1e-07 PS=5.1e-07
mXI1.XI54.MM14@3 N_BL3_XI1.XI54.MM14@3_d N_XI1.XI54.NET031_XI1.XI54.MM14@3_g
+ N_VSS_XI1.XI54.MM14@3_s N_VSS_XI0.XI33.MM7_b N_18 L=1.8e-07 W=8e-07
+ AD=2.04e-13 AS=2.04e-13 PD=5.1e-07 PS=5.1e-07
mXI1.XI56.MM14@3 N_BL5_XI1.XI56.MM14@3_d N_XI1.XI56.NET031_XI1.XI56.MM14@3_g
+ N_VSS_XI1.XI56.MM14@3_s N_VSS_XI0.XI33.MM7_b N_18 L=1.8e-07 W=8e-07
+ AD=2.04e-13 AS=2.04e-13 PD=5.1e-07 PS=5.1e-07
mXI1.XI58.MM14@3 N_BL7_XI1.XI58.MM14@3_d N_XI1.XI58.NET031_XI1.XI58.MM14@3_g
+ N_VSS_XI1.XI58.MM14@3_s N_VSS_XI0.XI33.MM7_b N_18 L=1.8e-07 W=8e-07
+ AD=2.04e-13 AS=2.04e-13 PD=5.1e-07 PS=5.1e-07
mXI1.XI52.MM14@2 N_BL1_XI1.XI52.MM14@2_d N_XI1.XI52.NET031_XI1.XI52.MM14@2_g
+ N_VSS_XI1.XI52.MM14@2_s N_VSS_XI0.XI33.MM7_b N_18 L=1.8e-07 W=8e-07
+ AD=2.04e-13 AS=3.92e-13 PD=5.1e-07 PS=1.78e-06
mXI1.XI54.MM14@2 N_BL3_XI1.XI54.MM14@2_d N_XI1.XI54.NET031_XI1.XI54.MM14@2_g
+ N_VSS_XI1.XI54.MM14@2_s N_VSS_XI0.XI33.MM7_b N_18 L=1.8e-07 W=8e-07
+ AD=2.04e-13 AS=3.92e-13 PD=5.1e-07 PS=1.78e-06
mXI1.XI56.MM14@2 N_BL5_XI1.XI56.MM14@2_d N_XI1.XI56.NET031_XI1.XI56.MM14@2_g
+ N_VSS_XI1.XI56.MM14@2_s N_VSS_XI0.XI33.MM7_b N_18 L=1.8e-07 W=8e-07
+ AD=2.04e-13 AS=3.92e-13 PD=5.1e-07 PS=1.78e-06
mXI1.XI58.MM14@2 N_BL7_XI1.XI58.MM14@2_d N_XI1.XI58.NET031_XI1.XI58.MM14@2_g
+ N_VSS_XI1.XI58.MM14@2_s N_VSS_XI0.XI33.MM7_b N_18 L=1.8e-07 W=8e-07
+ AD=2.04e-13 AS=3.92e-13 PD=5.1e-07 PS=1.78e-06
mXI1.XI52.MM13 N_XI1.XI52.NET031_XI1.XI52.MM13_d N_NET37_XI1.XI52.MM13_g
+ N_XI1.XI52.NET037_XI1.XI52.MM13_s N_VSS_XI0.XI33.MM7_b N_18 L=1.8e-07 W=6e-07
+ AD=2.94e-13 AS=1.53e-13 PD=1.58e-06 PS=5.1e-07
mXI1.XI54.MM13 N_XI1.XI54.NET031_XI1.XI54.MM13_d N_NET37_XI1.XI54.MM13_g
+ N_XI1.XI54.NET037_XI1.XI54.MM13_s N_VSS_XI0.XI33.MM7_b N_18 L=1.8e-07 W=6e-07
+ AD=2.94e-13 AS=1.53e-13 PD=1.58e-06 PS=5.1e-07
mXI1.XI56.MM13 N_XI1.XI56.NET031_XI1.XI56.MM13_d N_NET37_XI1.XI56.MM13_g
+ N_XI1.XI56.NET037_XI1.XI56.MM13_s N_VSS_XI0.XI33.MM7_b N_18 L=1.8e-07 W=6e-07
+ AD=2.94e-13 AS=1.53e-13 PD=1.58e-06 PS=5.1e-07
mXI1.XI58.MM13 N_XI1.XI58.NET031_XI1.XI58.MM13_d N_NET37_XI1.XI58.MM13_g
+ N_XI1.XI58.NET037_XI1.XI58.MM13_s N_VSS_XI0.XI33.MM7_b N_18 L=1.8e-07 W=6e-07
+ AD=2.94e-13 AS=1.53e-13 PD=1.58e-06 PS=5.1e-07
mXI1.XI52.MM12 N_XI1.XI52.NET037_XI1.XI52.MM12_d N_NET39_XI1.XI52.MM12_g
+ N_XI1.XI52.NET036_XI1.XI52.MM12_s N_VSS_XI0.XI33.MM7_b N_18 L=1.8e-07 W=6e-07
+ AD=1.53e-13 AS=1.53e-13 PD=5.1e-07 PS=5.1e-07
mXI1.XI54.MM12 N_XI1.XI54.NET037_XI1.XI54.MM12_d N_NET41_XI1.XI54.MM12_g
+ N_XI1.XI54.NET036_XI1.XI54.MM12_s N_VSS_XI0.XI33.MM7_b N_18 L=1.8e-07 W=6e-07
+ AD=1.53e-13 AS=1.53e-13 PD=5.1e-07 PS=5.1e-07
mXI1.XI56.MM12 N_XI1.XI56.NET037_XI1.XI56.MM12_d N_NET39_XI1.XI56.MM12_g
+ N_XI1.XI56.NET036_XI1.XI56.MM12_s N_VSS_XI0.XI33.MM7_b N_18 L=1.8e-07 W=6e-07
+ AD=1.53e-13 AS=1.53e-13 PD=5.1e-07 PS=5.1e-07
mXI1.XI58.MM12 N_XI1.XI58.NET037_XI1.XI58.MM12_d N_NET41_XI1.XI58.MM12_g
+ N_XI1.XI58.NET036_XI1.XI58.MM12_s N_VSS_XI0.XI33.MM7_b N_18 L=1.8e-07 W=6e-07
+ AD=1.53e-13 AS=1.53e-13 PD=5.1e-07 PS=5.1e-07
mXI1.XI52.MM11 N_XI1.XI52.NET036_XI1.XI52.MM11_d N_NET45_XI1.XI52.MM11_g
+ N_VSS_XI1.XI52.MM11_s N_VSS_XI0.XI33.MM7_b N_18 L=1.8e-07 W=6e-07 AD=1.53e-13
+ AS=2.94e-13 PD=5.1e-07 PS=1.58e-06
mXI1.XI54.MM11 N_XI1.XI54.NET036_XI1.XI54.MM11_d N_NET45_XI1.XI54.MM11_g
+ N_VSS_XI1.XI54.MM11_s N_VSS_XI0.XI33.MM7_b N_18 L=1.8e-07 W=6e-07 AD=1.53e-13
+ AS=2.94e-13 PD=5.1e-07 PS=1.58e-06
mXI1.XI56.MM11 N_XI1.XI56.NET036_XI1.XI56.MM11_d N_NET43_XI1.XI56.MM11_g
+ N_VSS_XI1.XI56.MM11_s N_VSS_XI0.XI33.MM7_b N_18 L=1.8e-07 W=6e-07 AD=1.53e-13
+ AS=2.94e-13 PD=5.1e-07 PS=1.58e-06
mXI1.XI58.MM11 N_XI1.XI58.NET036_XI1.XI58.MM11_d N_NET43_XI1.XI58.MM11_g
+ N_VSS_XI1.XI58.MM11_s N_VSS_XI0.XI33.MM7_b N_18 L=1.8e-07 W=6e-07 AD=1.53e-13
+ AS=2.94e-13 PD=5.1e-07 PS=1.58e-06
mXI1.XI43.MM11 N_XI1.XI43.NET036_XI1.XI43.MM11_d N_NET45_XI1.XI43.MM11_g
+ N_VSS_XI1.XI43.MM11_s N_VSS_XI0.XI33.MM7_b N_18 L=1.8e-07 W=6e-07 AD=1.53e-13
+ AS=2.94e-13 PD=5.1e-07 PS=1.58e-06
mXI1.XI53.MM11 N_XI1.XI53.NET036_XI1.XI53.MM11_d N_NET45_XI1.XI53.MM11_g
+ N_VSS_XI1.XI53.MM11_s N_VSS_XI0.XI33.MM7_b N_18 L=1.8e-07 W=6e-07 AD=1.53e-13
+ AS=2.94e-13 PD=5.1e-07 PS=1.58e-06
mXI1.XI55.MM11 N_XI1.XI55.NET036_XI1.XI55.MM11_d N_NET43_XI1.XI55.MM11_g
+ N_VSS_XI1.XI55.MM11_s N_VSS_XI0.XI33.MM7_b N_18 L=1.8e-07 W=6e-07 AD=1.53e-13
+ AS=2.94e-13 PD=5.1e-07 PS=1.58e-06
mXI1.XI57.MM11 N_XI1.XI57.NET036_XI1.XI57.MM11_d N_NET43_XI1.XI57.MM11_g
+ N_VSS_XI1.XI57.MM11_s N_VSS_XI0.XI33.MM7_b N_18 L=1.8e-07 W=6e-07 AD=1.53e-13
+ AS=2.94e-13 PD=5.1e-07 PS=1.58e-06
mXI1.XI43.MM12 N_XI1.XI43.NET037_XI1.XI43.MM12_d N_NET39_XI1.XI43.MM12_g
+ N_XI1.XI43.NET036_XI1.XI43.MM12_s N_VSS_XI0.XI33.MM7_b N_18 L=1.8e-07 W=6e-07
+ AD=1.53e-13 AS=1.53e-13 PD=5.1e-07 PS=5.1e-07
mXI1.XI53.MM12 N_XI1.XI53.NET037_XI1.XI53.MM12_d N_NET41_XI1.XI53.MM12_g
+ N_XI1.XI53.NET036_XI1.XI53.MM12_s N_VSS_XI0.XI33.MM7_b N_18 L=1.8e-07 W=6e-07
+ AD=1.53e-13 AS=1.53e-13 PD=5.1e-07 PS=5.1e-07
mXI1.XI55.MM12 N_XI1.XI55.NET037_XI1.XI55.MM12_d N_NET39_XI1.XI55.MM12_g
+ N_XI1.XI55.NET036_XI1.XI55.MM12_s N_VSS_XI0.XI33.MM7_b N_18 L=1.8e-07 W=6e-07
+ AD=1.53e-13 AS=1.53e-13 PD=5.1e-07 PS=5.1e-07
mXI1.XI57.MM12 N_XI1.XI57.NET037_XI1.XI57.MM12_d N_NET41_XI1.XI57.MM12_g
+ N_XI1.XI57.NET036_XI1.XI57.MM12_s N_VSS_XI0.XI33.MM7_b N_18 L=1.8e-07 W=6e-07
+ AD=1.53e-13 AS=1.53e-13 PD=5.1e-07 PS=5.1e-07
mXI1.XI43.MM13 N_XI1.XI43.NET031_XI1.XI43.MM13_d N_NET38_XI1.XI43.MM13_g
+ N_XI1.XI43.NET037_XI1.XI43.MM13_s N_VSS_XI0.XI33.MM7_b N_18 L=1.8e-07 W=6e-07
+ AD=2.94e-13 AS=1.53e-13 PD=1.58e-06 PS=5.1e-07
mXI1.XI53.MM13 N_XI1.XI53.NET031_XI1.XI53.MM13_d N_NET38_XI1.XI53.MM13_g
+ N_XI1.XI53.NET037_XI1.XI53.MM13_s N_VSS_XI0.XI33.MM7_b N_18 L=1.8e-07 W=6e-07
+ AD=2.94e-13 AS=1.53e-13 PD=1.58e-06 PS=5.1e-07
mXI1.XI55.MM13 N_XI1.XI55.NET031_XI1.XI55.MM13_d N_NET38_XI1.XI55.MM13_g
+ N_XI1.XI55.NET037_XI1.XI55.MM13_s N_VSS_XI0.XI33.MM7_b N_18 L=1.8e-07 W=6e-07
+ AD=2.94e-13 AS=1.53e-13 PD=1.58e-06 PS=5.1e-07
mXI1.XI57.MM13 N_XI1.XI57.NET031_XI1.XI57.MM13_d N_NET38_XI1.XI57.MM13_g
+ N_XI1.XI57.NET037_XI1.XI57.MM13_s N_VSS_XI0.XI33.MM7_b N_18 L=1.8e-07 W=6e-07
+ AD=2.94e-13 AS=1.53e-13 PD=1.58e-06 PS=5.1e-07
mXI1.XI43.MM14 N_BL0_XI1.XI43.MM14_d N_XI1.XI43.NET031_XI1.XI43.MM14_g
+ N_VSS_XI1.XI43.MM14_s N_VSS_XI0.XI33.MM7_b N_18 L=1.8e-07 W=8e-07 AD=2.04e-13
+ AS=3.92e-13 PD=5.1e-07 PS=1.78e-06
mXI1.XI53.MM14 N_BL2_XI1.XI53.MM14_d N_XI1.XI53.NET031_XI1.XI53.MM14_g
+ N_VSS_XI1.XI53.MM14_s N_VSS_XI0.XI33.MM7_b N_18 L=1.8e-07 W=8e-07 AD=2.04e-13
+ AS=3.92e-13 PD=5.1e-07 PS=1.78e-06
mXI1.XI55.MM14 N_BL4_XI1.XI55.MM14_d N_XI1.XI55.NET031_XI1.XI55.MM14_g
+ N_VSS_XI1.XI55.MM14_s N_VSS_XI0.XI33.MM7_b N_18 L=1.8e-07 W=8e-07 AD=2.04e-13
+ AS=3.92e-13 PD=5.1e-07 PS=1.78e-06
mXI1.XI57.MM14 N_BL6_XI1.XI57.MM14_d N_XI1.XI57.NET031_XI1.XI57.MM14_g
+ N_VSS_XI1.XI57.MM14_s N_VSS_XI0.XI33.MM7_b N_18 L=1.8e-07 W=8e-07 AD=2.04e-13
+ AS=3.92e-13 PD=5.1e-07 PS=1.78e-06
mXI1.XI43.MM14@4 N_BL0_XI1.XI43.MM14@4_d N_XI1.XI43.NET031_XI1.XI43.MM14@4_g
+ N_VSS_XI1.XI43.MM14@4_s N_VSS_XI0.XI33.MM7_b N_18 L=1.8e-07 W=8e-07
+ AD=2.04e-13 AS=2.04e-13 PD=5.1e-07 PS=5.1e-07
mXI1.XI53.MM14@4 N_BL2_XI1.XI53.MM14@4_d N_XI1.XI53.NET031_XI1.XI53.MM14@4_g
+ N_VSS_XI1.XI53.MM14@4_s N_VSS_XI0.XI33.MM7_b N_18 L=1.8e-07 W=8e-07
+ AD=2.04e-13 AS=2.04e-13 PD=5.1e-07 PS=5.1e-07
mXI1.XI55.MM14@4 N_BL4_XI1.XI55.MM14@4_d N_XI1.XI55.NET031_XI1.XI55.MM14@4_g
+ N_VSS_XI1.XI55.MM14@4_s N_VSS_XI0.XI33.MM7_b N_18 L=1.8e-07 W=8e-07
+ AD=2.04e-13 AS=2.04e-13 PD=5.1e-07 PS=5.1e-07
mXI1.XI57.MM14@4 N_BL6_XI1.XI57.MM14@4_d N_XI1.XI57.NET031_XI1.XI57.MM14@4_g
+ N_VSS_XI1.XI57.MM14@4_s N_VSS_XI0.XI33.MM7_b N_18 L=1.8e-07 W=8e-07
+ AD=2.04e-13 AS=2.04e-13 PD=5.1e-07 PS=5.1e-07
mXI1.XI43.MM14@3 N_BL0_XI1.XI43.MM14@3_d N_XI1.XI43.NET031_XI1.XI43.MM14@3_g
+ N_VSS_XI1.XI43.MM14@3_s N_VSS_XI0.XI33.MM7_b N_18 L=1.8e-07 W=8e-07
+ AD=2.04e-13 AS=2.04e-13 PD=5.1e-07 PS=5.1e-07
mXI1.XI53.MM14@3 N_BL2_XI1.XI53.MM14@3_d N_XI1.XI53.NET031_XI1.XI53.MM14@3_g
+ N_VSS_XI1.XI53.MM14@3_s N_VSS_XI0.XI33.MM7_b N_18 L=1.8e-07 W=8e-07
+ AD=2.04e-13 AS=2.04e-13 PD=5.1e-07 PS=5.1e-07
mXI1.XI55.MM14@3 N_BL4_XI1.XI55.MM14@3_d N_XI1.XI55.NET031_XI1.XI55.MM14@3_g
+ N_VSS_XI1.XI55.MM14@3_s N_VSS_XI0.XI33.MM7_b N_18 L=1.8e-07 W=8e-07
+ AD=2.04e-13 AS=2.04e-13 PD=5.1e-07 PS=5.1e-07
mXI1.XI57.MM14@3 N_BL6_XI1.XI57.MM14@3_d N_XI1.XI57.NET031_XI1.XI57.MM14@3_g
+ N_VSS_XI1.XI57.MM14@3_s N_VSS_XI0.XI33.MM7_b N_18 L=1.8e-07 W=8e-07
+ AD=2.04e-13 AS=2.04e-13 PD=5.1e-07 PS=5.1e-07
mXI1.XI43.MM14@2 N_BL0_XI1.XI43.MM14@2_d N_XI1.XI43.NET031_XI1.XI43.MM14@2_g
+ N_VSS_XI1.XI43.MM14@2_s N_VSS_XI0.XI33.MM7_b N_18 L=1.8e-07 W=8e-07
+ AD=2.04e-13 AS=3.92e-13 PD=5.1e-07 PS=1.78e-06
mXI1.XI53.MM14@2 N_BL2_XI1.XI53.MM14@2_d N_XI1.XI53.NET031_XI1.XI53.MM14@2_g
+ N_VSS_XI1.XI53.MM14@2_s N_VSS_XI0.XI33.MM7_b N_18 L=1.8e-07 W=8e-07
+ AD=2.04e-13 AS=3.92e-13 PD=5.1e-07 PS=1.78e-06
mXI1.XI55.MM14@2 N_BL4_XI1.XI55.MM14@2_d N_XI1.XI55.NET031_XI1.XI55.MM14@2_g
+ N_VSS_XI1.XI55.MM14@2_s N_VSS_XI0.XI33.MM7_b N_18 L=1.8e-07 W=8e-07
+ AD=2.04e-13 AS=3.92e-13 PD=5.1e-07 PS=1.78e-06
mXI1.XI57.MM14@2 N_BL6_XI1.XI57.MM14@2_d N_XI1.XI57.NET031_XI1.XI57.MM14@2_g
+ N_VSS_XI1.XI57.MM14@2_s N_VSS_XI0.XI33.MM7_b N_18 L=1.8e-07 W=8e-07
+ AD=2.04e-13 AS=3.92e-13 PD=5.1e-07 PS=1.78e-06
mXI2.XI52.MM14 N_WL1_XI2.XI52.MM14_d N_XI2.XI52.NET031_XI2.XI52.MM14_g
+ N_VSS_XI2.XI52.MM14_s N_VSS_XI0.XI33.MM7_b N_18 L=1.8e-07 W=8e-07 AD=2.04e-13
+ AS=3.92e-13 PD=5.1e-07 PS=1.78e-06
mXI2.XI54.MM14 N_WL3_XI2.XI54.MM14_d N_XI2.XI54.NET031_XI2.XI54.MM14_g
+ N_VSS_XI2.XI54.MM14_s N_VSS_XI0.XI33.MM7_b N_18 L=1.8e-07 W=8e-07 AD=2.04e-13
+ AS=3.92e-13 PD=5.1e-07 PS=1.78e-06
mXI2.XI56.MM14 N_WL5_XI2.XI56.MM14_d N_XI2.XI56.NET031_XI2.XI56.MM14_g
+ N_VSS_XI2.XI56.MM14_s N_VSS_XI0.XI33.MM7_b N_18 L=1.8e-07 W=8e-07 AD=2.04e-13
+ AS=3.92e-13 PD=5.1e-07 PS=1.78e-06
mXI2.XI58.MM14 N_WL7_XI2.XI58.MM14_d N_XI2.XI58.NET031_XI2.XI58.MM14_g
+ N_VSS_XI2.XI58.MM14_s N_VSS_XI0.XI33.MM7_b N_18 L=1.8e-07 W=8e-07 AD=2.04e-13
+ AS=3.92e-13 PD=5.1e-07 PS=1.78e-06
mXI2.XI52.MM14@4 N_WL1_XI2.XI52.MM14@4_d N_XI2.XI52.NET031_XI2.XI52.MM14@4_g
+ N_VSS_XI2.XI52.MM14@4_s N_VSS_XI0.XI33.MM7_b N_18 L=1.8e-07 W=8e-07
+ AD=2.04e-13 AS=2.04e-13 PD=5.1e-07 PS=5.1e-07
mXI2.XI54.MM14@4 N_WL3_XI2.XI54.MM14@4_d N_XI2.XI54.NET031_XI2.XI54.MM14@4_g
+ N_VSS_XI2.XI54.MM14@4_s N_VSS_XI0.XI33.MM7_b N_18 L=1.8e-07 W=8e-07
+ AD=2.04e-13 AS=2.04e-13 PD=5.1e-07 PS=5.1e-07
mXI2.XI56.MM14@4 N_WL5_XI2.XI56.MM14@4_d N_XI2.XI56.NET031_XI2.XI56.MM14@4_g
+ N_VSS_XI2.XI56.MM14@4_s N_VSS_XI0.XI33.MM7_b N_18 L=1.8e-07 W=8e-07
+ AD=2.04e-13 AS=2.04e-13 PD=5.1e-07 PS=5.1e-07
mXI2.XI58.MM14@4 N_WL7_XI2.XI58.MM14@4_d N_XI2.XI58.NET031_XI2.XI58.MM14@4_g
+ N_VSS_XI2.XI58.MM14@4_s N_VSS_XI0.XI33.MM7_b N_18 L=1.8e-07 W=8e-07
+ AD=2.04e-13 AS=2.04e-13 PD=5.1e-07 PS=5.1e-07
mXI2.XI52.MM14@3 N_WL1_XI2.XI52.MM14@3_d N_XI2.XI52.NET031_XI2.XI52.MM14@3_g
+ N_VSS_XI2.XI52.MM14@3_s N_VSS_XI0.XI33.MM7_b N_18 L=1.8e-07 W=8e-07
+ AD=2.04e-13 AS=2.04e-13 PD=5.1e-07 PS=5.1e-07
mXI2.XI54.MM14@3 N_WL3_XI2.XI54.MM14@3_d N_XI2.XI54.NET031_XI2.XI54.MM14@3_g
+ N_VSS_XI2.XI54.MM14@3_s N_VSS_XI0.XI33.MM7_b N_18 L=1.8e-07 W=8e-07
+ AD=2.04e-13 AS=2.04e-13 PD=5.1e-07 PS=5.1e-07
mXI2.XI56.MM14@3 N_WL5_XI2.XI56.MM14@3_d N_XI2.XI56.NET031_XI2.XI56.MM14@3_g
+ N_VSS_XI2.XI56.MM14@3_s N_VSS_XI0.XI33.MM7_b N_18 L=1.8e-07 W=8e-07
+ AD=2.04e-13 AS=2.04e-13 PD=5.1e-07 PS=5.1e-07
mXI2.XI58.MM14@3 N_WL7_XI2.XI58.MM14@3_d N_XI2.XI58.NET031_XI2.XI58.MM14@3_g
+ N_VSS_XI2.XI58.MM14@3_s N_VSS_XI0.XI33.MM7_b N_18 L=1.8e-07 W=8e-07
+ AD=2.04e-13 AS=2.04e-13 PD=5.1e-07 PS=5.1e-07
mXI2.XI52.MM14@2 N_WL1_XI2.XI52.MM14@2_d N_XI2.XI52.NET031_XI2.XI52.MM14@2_g
+ N_VSS_XI2.XI52.MM14@2_s N_VSS_XI0.XI33.MM7_b N_18 L=1.8e-07 W=8e-07
+ AD=2.04e-13 AS=3.92e-13 PD=5.1e-07 PS=1.78e-06
mXI2.XI54.MM14@2 N_WL3_XI2.XI54.MM14@2_d N_XI2.XI54.NET031_XI2.XI54.MM14@2_g
+ N_VSS_XI2.XI54.MM14@2_s N_VSS_XI0.XI33.MM7_b N_18 L=1.8e-07 W=8e-07
+ AD=2.04e-13 AS=3.92e-13 PD=5.1e-07 PS=1.78e-06
mXI2.XI56.MM14@2 N_WL5_XI2.XI56.MM14@2_d N_XI2.XI56.NET031_XI2.XI56.MM14@2_g
+ N_VSS_XI2.XI56.MM14@2_s N_VSS_XI0.XI33.MM7_b N_18 L=1.8e-07 W=8e-07
+ AD=2.04e-13 AS=3.92e-13 PD=5.1e-07 PS=1.78e-06
mXI2.XI58.MM14@2 N_WL7_XI2.XI58.MM14@2_d N_XI2.XI58.NET031_XI2.XI58.MM14@2_g
+ N_VSS_XI2.XI58.MM14@2_s N_VSS_XI0.XI33.MM7_b N_18 L=1.8e-07 W=8e-07
+ AD=2.04e-13 AS=3.92e-13 PD=5.1e-07 PS=1.78e-06
mXI2.XI52.MM13 N_XI2.XI52.NET031_XI2.XI52.MM13_d N_NET47_XI2.XI52.MM13_g
+ N_XI2.XI52.NET036_XI2.XI52.MM13_s N_VSS_XI0.XI33.MM7_b N_18 L=1.8e-07
+ W=4.7e-07 AD=2.303e-13 AS=1.1985e-13 PD=1.45e-06 PS=5.1e-07
mXI2.XI54.MM13 N_XI2.XI54.NET031_XI2.XI54.MM13_d N_NET47_XI2.XI54.MM13_g
+ N_XI2.XI54.NET036_XI2.XI54.MM13_s N_VSS_XI0.XI33.MM7_b N_18 L=1.8e-07
+ W=4.7e-07 AD=2.303e-13 AS=1.1985e-13 PD=1.45e-06 PS=5.1e-07
mXI2.XI56.MM13 N_XI2.XI56.NET031_XI2.XI56.MM13_d N_NET47_XI2.XI56.MM13_g
+ N_XI2.XI56.NET036_XI2.XI56.MM13_s N_VSS_XI0.XI33.MM7_b N_18 L=1.8e-07
+ W=4.7e-07 AD=2.303e-13 AS=1.1985e-13 PD=1.45e-06 PS=5.1e-07
mXI2.XI58.MM13 N_XI2.XI58.NET031_XI2.XI58.MM13_d N_NET47_XI2.XI58.MM13_g
+ N_XI2.XI58.NET036_XI2.XI58.MM13_s N_VSS_XI0.XI33.MM7_b N_18 L=1.8e-07
+ W=4.7e-07 AD=2.303e-13 AS=1.1985e-13 PD=1.45e-06 PS=5.1e-07
mXI2.XI52.MM12 N_XI2.XI52.NET036_XI2.XI52.MM12_d N_NET44_XI2.XI52.MM12_g
+ N_XI2.XI52.NET037_XI2.XI52.MM12_s N_VSS_XI0.XI33.MM7_b N_18 L=1.8e-07
+ W=4.7e-07 AD=1.1985e-13 AS=1.1985e-13 PD=5.1e-07 PS=5.1e-07
mXI2.XI54.MM12 N_XI2.XI54.NET036_XI2.XI54.MM12_d N_NET46_XI2.XI54.MM12_g
+ N_XI2.XI54.NET037_XI2.XI54.MM12_s N_VSS_XI0.XI33.MM7_b N_18 L=1.8e-07
+ W=4.7e-07 AD=1.1985e-13 AS=1.1985e-13 PD=5.1e-07 PS=5.1e-07
mXI2.XI56.MM12 N_XI2.XI56.NET036_XI2.XI56.MM12_d N_NET44_XI2.XI56.MM12_g
+ N_XI2.XI56.NET037_XI2.XI56.MM12_s N_VSS_XI0.XI33.MM7_b N_18 L=1.8e-07
+ W=4.7e-07 AD=1.1985e-13 AS=1.1985e-13 PD=5.1e-07 PS=5.1e-07
mXI2.XI58.MM12 N_XI2.XI58.NET036_XI2.XI58.MM12_d N_NET46_XI2.XI58.MM12_g
+ N_XI2.XI58.NET037_XI2.XI58.MM12_s N_VSS_XI0.XI33.MM7_b N_18 L=1.8e-07
+ W=4.7e-07 AD=1.1985e-13 AS=1.1985e-13 PD=5.1e-07 PS=5.1e-07
mXI2.XI52.MM11 N_XI2.XI52.NET037_XI2.XI52.MM11_d N_NET40_XI2.XI52.MM11_g
+ N_VSS_XI2.XI52.MM11_s N_VSS_XI0.XI33.MM7_b N_18 L=1.8e-07 W=4.7e-07
+ AD=1.1985e-13 AS=2.303e-13 PD=5.1e-07 PS=1.45e-06
mXI2.XI54.MM11 N_XI2.XI54.NET037_XI2.XI54.MM11_d N_NET40_XI2.XI54.MM11_g
+ N_VSS_XI2.XI54.MM11_s N_VSS_XI0.XI33.MM7_b N_18 L=1.8e-07 W=4.7e-07
+ AD=1.1985e-13 AS=2.303e-13 PD=5.1e-07 PS=1.45e-06
mXI2.XI56.MM11 N_XI2.XI56.NET037_XI2.XI56.MM11_d N_NET42_XI2.XI56.MM11_g
+ N_VSS_XI2.XI56.MM11_s N_VSS_XI0.XI33.MM7_b N_18 L=1.8e-07 W=4.7e-07
+ AD=1.1985e-13 AS=2.303e-13 PD=5.1e-07 PS=1.45e-06
mXI2.XI58.MM11 N_XI2.XI58.NET037_XI2.XI58.MM11_d N_NET42_XI2.XI58.MM11_g
+ N_VSS_XI2.XI58.MM11_s N_VSS_XI0.XI33.MM7_b N_18 L=1.8e-07 W=4.7e-07
+ AD=1.1985e-13 AS=2.303e-13 PD=5.1e-07 PS=1.45e-06
mXI2.XI43.MM11 N_XI2.XI43.NET037_XI2.XI43.MM11_d N_NET40_XI2.XI43.MM11_g
+ N_VSS_XI2.XI43.MM11_s N_VSS_XI0.XI33.MM7_b N_18 L=1.8e-07 W=4.7e-07
+ AD=1.1985e-13 AS=2.303e-13 PD=5.1e-07 PS=1.45e-06
mXI2.XI53.MM11 N_XI2.XI53.NET037_XI2.XI53.MM11_d N_NET40_XI2.XI53.MM11_g
+ N_VSS_XI2.XI53.MM11_s N_VSS_XI0.XI33.MM7_b N_18 L=1.8e-07 W=4.7e-07
+ AD=1.1985e-13 AS=2.303e-13 PD=5.1e-07 PS=1.45e-06
mXI2.XI55.MM11 N_XI2.XI55.NET037_XI2.XI55.MM11_d N_NET42_XI2.XI55.MM11_g
+ N_VSS_XI2.XI55.MM11_s N_VSS_XI0.XI33.MM7_b N_18 L=1.8e-07 W=4.7e-07
+ AD=1.1985e-13 AS=2.303e-13 PD=5.1e-07 PS=1.45e-06
mXI2.XI57.MM11 N_XI2.XI57.NET037_XI2.XI57.MM11_d N_NET42_XI2.XI57.MM11_g
+ N_VSS_XI2.XI57.MM11_s N_VSS_XI0.XI33.MM7_b N_18 L=1.8e-07 W=4.7e-07
+ AD=1.1985e-13 AS=2.303e-13 PD=5.1e-07 PS=1.45e-06
mXI2.XI43.MM12 N_XI2.XI43.NET036_XI2.XI43.MM12_d N_NET44_XI2.XI43.MM12_g
+ N_XI2.XI43.NET037_XI2.XI43.MM12_s N_VSS_XI0.XI33.MM7_b N_18 L=1.8e-07
+ W=4.7e-07 AD=1.1985e-13 AS=1.1985e-13 PD=5.1e-07 PS=5.1e-07
mXI2.XI53.MM12 N_XI2.XI53.NET036_XI2.XI53.MM12_d N_NET46_XI2.XI53.MM12_g
+ N_XI2.XI53.NET037_XI2.XI53.MM12_s N_VSS_XI0.XI33.MM7_b N_18 L=1.8e-07
+ W=4.7e-07 AD=1.1985e-13 AS=1.1985e-13 PD=5.1e-07 PS=5.1e-07
mXI2.XI55.MM12 N_XI2.XI55.NET036_XI2.XI55.MM12_d N_NET44_XI2.XI55.MM12_g
+ N_XI2.XI55.NET037_XI2.XI55.MM12_s N_VSS_XI0.XI33.MM7_b N_18 L=1.8e-07
+ W=4.7e-07 AD=1.1985e-13 AS=1.1985e-13 PD=5.1e-07 PS=5.1e-07
mXI2.XI57.MM12 N_XI2.XI57.NET036_XI2.XI57.MM12_d N_NET46_XI2.XI57.MM12_g
+ N_XI2.XI57.NET037_XI2.XI57.MM12_s N_VSS_XI0.XI33.MM7_b N_18 L=1.8e-07
+ W=4.7e-07 AD=1.1985e-13 AS=1.1985e-13 PD=5.1e-07 PS=5.1e-07
mXI2.XI43.MM13 N_XI2.XI43.NET031_XI2.XI43.MM13_d N_NET48_XI2.XI43.MM13_g
+ N_XI2.XI43.NET036_XI2.XI43.MM13_s N_VSS_XI0.XI33.MM7_b N_18 L=1.8e-07
+ W=4.7e-07 AD=2.303e-13 AS=1.1985e-13 PD=1.45e-06 PS=5.1e-07
mXI2.XI53.MM13 N_XI2.XI53.NET031_XI2.XI53.MM13_d N_NET48_XI2.XI53.MM13_g
+ N_XI2.XI53.NET036_XI2.XI53.MM13_s N_VSS_XI0.XI33.MM7_b N_18 L=1.8e-07
+ W=4.7e-07 AD=2.303e-13 AS=1.1985e-13 PD=1.45e-06 PS=5.1e-07
mXI2.XI55.MM13 N_XI2.XI55.NET031_XI2.XI55.MM13_d N_NET48_XI2.XI55.MM13_g
+ N_XI2.XI55.NET036_XI2.XI55.MM13_s N_VSS_XI0.XI33.MM7_b N_18 L=1.8e-07
+ W=4.7e-07 AD=2.303e-13 AS=1.1985e-13 PD=1.45e-06 PS=5.1e-07
mXI2.XI57.MM13 N_XI2.XI57.NET031_XI2.XI57.MM13_d N_NET48_XI2.XI57.MM13_g
+ N_XI2.XI57.NET036_XI2.XI57.MM13_s N_VSS_XI0.XI33.MM7_b N_18 L=1.8e-07
+ W=4.7e-07 AD=2.303e-13 AS=1.1985e-13 PD=1.45e-06 PS=5.1e-07
mXI2.XI43.MM14 N_WL0_XI2.XI43.MM14_d N_XI2.XI43.NET031_XI2.XI43.MM14_g
+ N_VSS_XI2.XI43.MM14_s N_VSS_XI0.XI33.MM7_b N_18 L=1.8e-07 W=8e-07 AD=2.04e-13
+ AS=3.92e-13 PD=5.1e-07 PS=1.78e-06
mXI2.XI53.MM14 N_WL2_XI2.XI53.MM14_d N_XI2.XI53.NET031_XI2.XI53.MM14_g
+ N_VSS_XI2.XI53.MM14_s N_VSS_XI0.XI33.MM7_b N_18 L=1.8e-07 W=8e-07 AD=2.04e-13
+ AS=3.92e-13 PD=5.1e-07 PS=1.78e-06
mXI2.XI55.MM14 N_WL4_XI2.XI55.MM14_d N_XI2.XI55.NET031_XI2.XI55.MM14_g
+ N_VSS_XI2.XI55.MM14_s N_VSS_XI0.XI33.MM7_b N_18 L=1.8e-07 W=8e-07 AD=2.04e-13
+ AS=3.92e-13 PD=5.1e-07 PS=1.78e-06
mXI2.XI57.MM14 N_WL6_XI2.XI57.MM14_d N_XI2.XI57.NET031_XI2.XI57.MM14_g
+ N_VSS_XI2.XI57.MM14_s N_VSS_XI0.XI33.MM7_b N_18 L=1.8e-07 W=8e-07 AD=2.04e-13
+ AS=3.92e-13 PD=5.1e-07 PS=1.78e-06
mXI2.XI43.MM14@4 N_WL0_XI2.XI43.MM14@4_d N_XI2.XI43.NET031_XI2.XI43.MM14@4_g
+ N_VSS_XI2.XI43.MM14@4_s N_VSS_XI0.XI33.MM7_b N_18 L=1.8e-07 W=8e-07
+ AD=2.04e-13 AS=2.04e-13 PD=5.1e-07 PS=5.1e-07
mXI2.XI53.MM14@4 N_WL2_XI2.XI53.MM14@4_d N_XI2.XI53.NET031_XI2.XI53.MM14@4_g
+ N_VSS_XI2.XI53.MM14@4_s N_VSS_XI0.XI33.MM7_b N_18 L=1.8e-07 W=8e-07
+ AD=2.04e-13 AS=2.04e-13 PD=5.1e-07 PS=5.1e-07
mXI2.XI55.MM14@4 N_WL4_XI2.XI55.MM14@4_d N_XI2.XI55.NET031_XI2.XI55.MM14@4_g
+ N_VSS_XI2.XI55.MM14@4_s N_VSS_XI0.XI33.MM7_b N_18 L=1.8e-07 W=8e-07
+ AD=2.04e-13 AS=2.04e-13 PD=5.1e-07 PS=5.1e-07
mXI2.XI57.MM14@4 N_WL6_XI2.XI57.MM14@4_d N_XI2.XI57.NET031_XI2.XI57.MM14@4_g
+ N_VSS_XI2.XI57.MM14@4_s N_VSS_XI0.XI33.MM7_b N_18 L=1.8e-07 W=8e-07
+ AD=2.04e-13 AS=2.04e-13 PD=5.1e-07 PS=5.1e-07
mXI2.XI43.MM14@3 N_WL0_XI2.XI43.MM14@3_d N_XI2.XI43.NET031_XI2.XI43.MM14@3_g
+ N_VSS_XI2.XI43.MM14@3_s N_VSS_XI0.XI33.MM7_b N_18 L=1.8e-07 W=8e-07
+ AD=2.04e-13 AS=2.04e-13 PD=5.1e-07 PS=5.1e-07
mXI2.XI53.MM14@3 N_WL2_XI2.XI53.MM14@3_d N_XI2.XI53.NET031_XI2.XI53.MM14@3_g
+ N_VSS_XI2.XI53.MM14@3_s N_VSS_XI0.XI33.MM7_b N_18 L=1.8e-07 W=8e-07
+ AD=2.04e-13 AS=2.04e-13 PD=5.1e-07 PS=5.1e-07
mXI2.XI55.MM14@3 N_WL4_XI2.XI55.MM14@3_d N_XI2.XI55.NET031_XI2.XI55.MM14@3_g
+ N_VSS_XI2.XI55.MM14@3_s N_VSS_XI0.XI33.MM7_b N_18 L=1.8e-07 W=8e-07
+ AD=2.04e-13 AS=2.04e-13 PD=5.1e-07 PS=5.1e-07
mXI2.XI57.MM14@3 N_WL6_XI2.XI57.MM14@3_d N_XI2.XI57.NET031_XI2.XI57.MM14@3_g
+ N_VSS_XI2.XI57.MM14@3_s N_VSS_XI0.XI33.MM7_b N_18 L=1.8e-07 W=8e-07
+ AD=2.04e-13 AS=2.04e-13 PD=5.1e-07 PS=5.1e-07
mXI2.XI43.MM14@2 N_WL0_XI2.XI43.MM14@2_d N_XI2.XI43.NET031_XI2.XI43.MM14@2_g
+ N_VSS_XI2.XI43.MM14@2_s N_VSS_XI0.XI33.MM7_b N_18 L=1.8e-07 W=8e-07
+ AD=2.04e-13 AS=3.92e-13 PD=5.1e-07 PS=1.78e-06
mXI2.XI53.MM14@2 N_WL2_XI2.XI53.MM14@2_d N_XI2.XI53.NET031_XI2.XI53.MM14@2_g
+ N_VSS_XI2.XI53.MM14@2_s N_VSS_XI0.XI33.MM7_b N_18 L=1.8e-07 W=8e-07
+ AD=2.04e-13 AS=3.92e-13 PD=5.1e-07 PS=1.78e-06
mXI2.XI55.MM14@2 N_WL4_XI2.XI55.MM14@2_d N_XI2.XI55.NET031_XI2.XI55.MM14@2_g
+ N_VSS_XI2.XI55.MM14@2_s N_VSS_XI0.XI33.MM7_b N_18 L=1.8e-07 W=8e-07
+ AD=2.04e-13 AS=3.92e-13 PD=5.1e-07 PS=1.78e-06
mXI2.XI57.MM14@2 N_WL6_XI2.XI57.MM14@2_d N_XI2.XI57.NET031_XI2.XI57.MM14@2_g
+ N_VSS_XI2.XI57.MM14@2_s N_VSS_XI0.XI33.MM7_b N_18 L=1.8e-07 W=8e-07
+ AD=2.04e-13 AS=3.92e-13 PD=5.1e-07 PS=1.78e-06
mXI1.XI52.MM18 N_BL1_XI1.XI52.MM18_d N_XI1.XI52.NET031_XI1.XI52.MM18_g
+ N_VDD_XI1.XI52.MM18_s N_VDD_XI1.XI52.MM18_b P_18 L=1.8e-07 W=1.2e-06
+ AD=3.06e-13 AS=5.88e-13 PD=5.1e-07 PS=2.18e-06
mXI1.XI54.MM18 N_BL3_XI1.XI54.MM18_d N_XI1.XI54.NET031_XI1.XI54.MM18_g
+ N_VDD_XI1.XI54.MM18_s N_VDD_XI0.XI33.MM2_b P_18 L=1.8e-07 W=1.2e-06
+ AD=3.06e-13 AS=5.88e-13 PD=5.1e-07 PS=2.18e-06
mXI1.XI56.MM18 N_BL5_XI1.XI56.MM18_d N_XI1.XI56.NET031_XI1.XI56.MM18_g
+ N_VDD_XI1.XI56.MM18_s N_VDD_XI0.XI33.MM2_b P_18 L=1.8e-07 W=1.2e-06
+ AD=3.06e-13 AS=5.88e-13 PD=5.1e-07 PS=2.18e-06
mXI1.XI58.MM18 N_BL7_XI1.XI58.MM18_d N_XI1.XI58.NET031_XI1.XI58.MM18_g
+ N_VDD_XI1.XI58.MM18_s N_VDD_XI0.XI23.MM0_b P_18 L=1.8e-07 W=1.2e-06
+ AD=3.06e-13 AS=5.88e-13 PD=5.1e-07 PS=2.18e-06
mXI1.XI52.MM18@4 N_BL1_XI1.XI52.MM18@4_d N_XI1.XI52.NET031_XI1.XI52.MM18@4_g
+ N_VDD_XI1.XI52.MM18@4_s N_VDD_XI1.XI52.MM18_b P_18 L=1.8e-07 W=1.2e-06
+ AD=3.06e-13 AS=3.06e-13 PD=5.1e-07 PS=5.1e-07
mXI1.XI54.MM18@4 N_BL3_XI1.XI54.MM18@4_d N_XI1.XI54.NET031_XI1.XI54.MM18@4_g
+ N_VDD_XI1.XI54.MM18@4_s N_VDD_XI0.XI33.MM2_b P_18 L=1.8e-07 W=1.2e-06
+ AD=3.06e-13 AS=3.06e-13 PD=5.1e-07 PS=5.1e-07
mXI1.XI56.MM18@4 N_BL5_XI1.XI56.MM18@4_d N_XI1.XI56.NET031_XI1.XI56.MM18@4_g
+ N_VDD_XI1.XI56.MM18@4_s N_VDD_XI0.XI33.MM2_b P_18 L=1.8e-07 W=1.2e-06
+ AD=3.06e-13 AS=3.06e-13 PD=5.1e-07 PS=5.1e-07
mXI1.XI58.MM18@4 N_BL7_XI1.XI58.MM18@4_d N_XI1.XI58.NET031_XI1.XI58.MM18@4_g
+ N_VDD_XI1.XI58.MM18@4_s N_VDD_XI0.XI23.MM0_b P_18 L=1.8e-07 W=1.2e-06
+ AD=3.06e-13 AS=3.06e-13 PD=5.1e-07 PS=5.1e-07
mXI1.XI52.MM18@3 N_BL1_XI1.XI52.MM18@3_d N_XI1.XI52.NET031_XI1.XI52.MM18@3_g
+ N_VDD_XI1.XI52.MM18@3_s N_VDD_XI1.XI52.MM18_b P_18 L=1.8e-07 W=1.2e-06
+ AD=3.06e-13 AS=3.06e-13 PD=5.1e-07 PS=5.1e-07
mXI1.XI54.MM18@3 N_BL3_XI1.XI54.MM18@3_d N_XI1.XI54.NET031_XI1.XI54.MM18@3_g
+ N_VDD_XI1.XI54.MM18@3_s N_VDD_XI0.XI33.MM2_b P_18 L=1.8e-07 W=1.2e-06
+ AD=3.06e-13 AS=3.06e-13 PD=5.1e-07 PS=5.1e-07
mXI1.XI56.MM18@3 N_BL5_XI1.XI56.MM18@3_d N_XI1.XI56.NET031_XI1.XI56.MM18@3_g
+ N_VDD_XI1.XI56.MM18@3_s N_VDD_XI0.XI33.MM2_b P_18 L=1.8e-07 W=1.2e-06
+ AD=3.06e-13 AS=3.06e-13 PD=5.1e-07 PS=5.1e-07
mXI1.XI58.MM18@3 N_BL7_XI1.XI58.MM18@3_d N_XI1.XI58.NET031_XI1.XI58.MM18@3_g
+ N_VDD_XI1.XI58.MM18@3_s N_VDD_XI0.XI23.MM0_b P_18 L=1.8e-07 W=1.2e-06
+ AD=3.06e-13 AS=3.06e-13 PD=5.1e-07 PS=5.1e-07
mXI1.XI52.MM18@2 N_BL1_XI1.XI52.MM18@2_d N_XI1.XI52.NET031_XI1.XI52.MM18@2_g
+ N_VDD_XI1.XI52.MM18@2_s N_VDD_XI1.XI52.MM18_b P_18 L=1.8e-07 W=1.2e-06
+ AD=3.06e-13 AS=5.88e-13 PD=5.1e-07 PS=2.18e-06
mXI1.XI54.MM18@2 N_BL3_XI1.XI54.MM18@2_d N_XI1.XI54.NET031_XI1.XI54.MM18@2_g
+ N_VDD_XI1.XI54.MM18@2_s N_VDD_XI0.XI33.MM2_b P_18 L=1.8e-07 W=1.2e-06
+ AD=3.06e-13 AS=5.88e-13 PD=5.1e-07 PS=2.18e-06
mXI1.XI56.MM18@2 N_BL5_XI1.XI56.MM18@2_d N_XI1.XI56.NET031_XI1.XI56.MM18@2_g
+ N_VDD_XI1.XI56.MM18@2_s N_VDD_XI0.XI33.MM2_b P_18 L=1.8e-07 W=1.2e-06
+ AD=3.06e-13 AS=5.88e-13 PD=5.1e-07 PS=2.18e-06
mXI1.XI58.MM18@2 N_BL7_XI1.XI58.MM18@2_d N_XI1.XI58.NET031_XI1.XI58.MM18@2_g
+ N_VDD_XI1.XI58.MM18@2_s N_VDD_XI0.XI23.MM0_b P_18 L=1.8e-07 W=1.2e-06
+ AD=3.06e-13 AS=5.88e-13 PD=5.1e-07 PS=2.18e-06
mXI1.XI52.MM17 N_XI1.XI52.NET031_XI1.XI52.MM17_d N_EN_XI1.XI52.MM17_g
+ N_VDD_XI1.XI52.MM17_s N_VDD_XI1.XI52.MM18_b P_18 L=1.8e-07 W=1.2e-06
+ AD=5.88e-13 AS=3.06e-13 PD=2.18e-06 PS=5.1e-07
mXI1.XI54.MM17 N_XI1.XI54.NET031_XI1.XI54.MM17_d N_EN_XI1.XI54.MM17_g
+ N_VDD_XI1.XI54.MM17_s N_VDD_XI0.XI33.MM2_b P_18 L=1.8e-07 W=1.2e-06
+ AD=5.88e-13 AS=3.06e-13 PD=2.18e-06 PS=5.1e-07
mXI1.XI56.MM17 N_XI1.XI56.NET031_XI1.XI56.MM17_d N_EN_XI1.XI56.MM17_g
+ N_VDD_XI1.XI56.MM17_s N_VDD_XI0.XI33.MM2_b P_18 L=1.8e-07 W=1.2e-06
+ AD=5.88e-13 AS=3.06e-13 PD=2.18e-06 PS=5.1e-07
mXI1.XI58.MM17 N_XI1.XI58.NET031_XI1.XI58.MM17_d N_EN_XI1.XI58.MM17_g
+ N_VDD_XI1.XI58.MM17_s N_VDD_XI0.XI23.MM0_b P_18 L=1.8e-07 W=1.2e-06
+ AD=5.88e-13 AS=3.06e-13 PD=2.18e-06 PS=5.1e-07
mXI1.XI52.MM15 N_XI1.XI52.NET031_XI1.XI52.MM15_d N_NET37_XI1.XI52.MM15_g
+ N_VDD_XI1.XI52.MM15_s N_VDD_XI1.XI52.MM18_b P_18 L=1.8e-07 W=1.2e-06
+ AD=3.06e-13 AS=3.06e-13 PD=5.1e-07 PS=5.1e-07
mXI1.XI54.MM15 N_XI1.XI54.NET031_XI1.XI54.MM15_d N_NET37_XI1.XI54.MM15_g
+ N_VDD_XI1.XI54.MM15_s N_VDD_XI0.XI33.MM2_b P_18 L=1.8e-07 W=1.2e-06
+ AD=3.06e-13 AS=3.06e-13 PD=5.1e-07 PS=5.1e-07
mXI1.XI56.MM15 N_XI1.XI56.NET031_XI1.XI56.MM15_d N_NET37_XI1.XI56.MM15_g
+ N_VDD_XI1.XI56.MM15_s N_VDD_XI0.XI33.MM2_b P_18 L=1.8e-07 W=1.2e-06
+ AD=3.06e-13 AS=3.06e-13 PD=5.1e-07 PS=5.1e-07
mXI1.XI58.MM15 N_XI1.XI58.NET031_XI1.XI58.MM15_d N_NET37_XI1.XI58.MM15_g
+ N_VDD_XI1.XI58.MM15_s N_VDD_XI0.XI23.MM0_b P_18 L=1.8e-07 W=1.2e-06
+ AD=3.06e-13 AS=3.06e-13 PD=5.1e-07 PS=5.1e-07
mXI1.XI52.MM16 N_XI1.XI52.NET031_XI1.XI52.MM16_d N_NET39_XI1.XI52.MM16_g
+ N_VDD_XI1.XI52.MM16_s N_VDD_XI1.XI52.MM18_b P_18 L=1.8e-07 W=1.2e-06
+ AD=3.06e-13 AS=3.06e-13 PD=5.1e-07 PS=5.1e-07
mXI1.XI54.MM16 N_XI1.XI54.NET031_XI1.XI54.MM16_d N_NET41_XI1.XI54.MM16_g
+ N_VDD_XI1.XI54.MM16_s N_VDD_XI0.XI33.MM2_b P_18 L=1.8e-07 W=1.2e-06
+ AD=3.06e-13 AS=3.06e-13 PD=5.1e-07 PS=5.1e-07
mXI1.XI56.MM16 N_XI1.XI56.NET031_XI1.XI56.MM16_d N_NET39_XI1.XI56.MM16_g
+ N_VDD_XI1.XI56.MM16_s N_VDD_XI0.XI33.MM2_b P_18 L=1.8e-07 W=1.2e-06
+ AD=3.06e-13 AS=3.06e-13 PD=5.1e-07 PS=5.1e-07
mXI1.XI58.MM16 N_XI1.XI58.NET031_XI1.XI58.MM16_d N_NET41_XI1.XI58.MM16_g
+ N_VDD_XI1.XI58.MM16_s N_VDD_XI0.XI23.MM0_b P_18 L=1.8e-07 W=1.2e-06
+ AD=3.06e-13 AS=3.06e-13 PD=5.1e-07 PS=5.1e-07
mXI1.XI52.MM19 N_XI1.XI52.NET031_XI1.XI52.MM19_d N_NET45_XI1.XI52.MM19_g
+ N_VDD_XI1.XI52.MM19_s N_VDD_XI1.XI52.MM18_b P_18 L=1.8e-07 W=1.2e-06
+ AD=5.88e-13 AS=3.06e-13 PD=2.18e-06 PS=5.1e-07
mXI1.XI54.MM19 N_XI1.XI54.NET031_XI1.XI54.MM19_d N_NET45_XI1.XI54.MM19_g
+ N_VDD_XI1.XI54.MM19_s N_VDD_XI0.XI33.MM2_b P_18 L=1.8e-07 W=1.2e-06
+ AD=5.88e-13 AS=3.06e-13 PD=2.18e-06 PS=5.1e-07
mXI1.XI56.MM19 N_XI1.XI56.NET031_XI1.XI56.MM19_d N_NET43_XI1.XI56.MM19_g
+ N_VDD_XI1.XI56.MM19_s N_VDD_XI0.XI33.MM2_b P_18 L=1.8e-07 W=1.2e-06
+ AD=5.88e-13 AS=3.06e-13 PD=2.18e-06 PS=5.1e-07
mXI1.XI58.MM19 N_XI1.XI58.NET031_XI1.XI58.MM19_d N_NET43_XI1.XI58.MM19_g
+ N_VDD_XI1.XI58.MM19_s N_VDD_XI0.XI23.MM0_b P_18 L=1.8e-07 W=1.2e-06
+ AD=5.88e-13 AS=3.06e-13 PD=2.18e-06 PS=5.1e-07
mXI1.XI43.MM19 N_XI1.XI43.NET031_XI1.XI43.MM19_d N_NET45_XI1.XI43.MM19_g
+ N_VDD_XI1.XI43.MM19_s N_VDD_XI1.XI52.MM18_b P_18 L=1.8e-07 W=1.2e-06
+ AD=5.88e-13 AS=3.06e-13 PD=2.18e-06 PS=5.1e-07
mXI1.XI53.MM19 N_XI1.XI53.NET031_XI1.XI53.MM19_d N_NET45_XI1.XI53.MM19_g
+ N_VDD_XI1.XI53.MM19_s N_VDD_XI0.XI33.MM2_b P_18 L=1.8e-07 W=1.2e-06
+ AD=5.88e-13 AS=3.06e-13 PD=2.18e-06 PS=5.1e-07
mXI1.XI55.MM19 N_XI1.XI55.NET031_XI1.XI55.MM19_d N_NET43_XI1.XI55.MM19_g
+ N_VDD_XI1.XI55.MM19_s N_VDD_XI0.XI33.MM2_b P_18 L=1.8e-07 W=1.2e-06
+ AD=5.88e-13 AS=3.06e-13 PD=2.18e-06 PS=5.1e-07
mXI1.XI57.MM19 N_XI1.XI57.NET031_XI1.XI57.MM19_d N_NET43_XI1.XI57.MM19_g
+ N_VDD_XI1.XI57.MM19_s N_VDD_XI0.XI23.MM0_b P_18 L=1.8e-07 W=1.2e-06
+ AD=5.88e-13 AS=3.06e-13 PD=2.18e-06 PS=5.1e-07
mXI1.XI43.MM16 N_XI1.XI43.NET031_XI1.XI43.MM16_d N_NET39_XI1.XI43.MM16_g
+ N_VDD_XI1.XI43.MM16_s N_VDD_XI1.XI52.MM18_b P_18 L=1.8e-07 W=1.2e-06
+ AD=3.06e-13 AS=3.06e-13 PD=5.1e-07 PS=5.1e-07
mXI1.XI53.MM16 N_XI1.XI53.NET031_XI1.XI53.MM16_d N_NET41_XI1.XI53.MM16_g
+ N_VDD_XI1.XI53.MM16_s N_VDD_XI0.XI33.MM2_b P_18 L=1.8e-07 W=1.2e-06
+ AD=3.06e-13 AS=3.06e-13 PD=5.1e-07 PS=5.1e-07
mXI1.XI55.MM16 N_XI1.XI55.NET031_XI1.XI55.MM16_d N_NET39_XI1.XI55.MM16_g
+ N_VDD_XI1.XI55.MM16_s N_VDD_XI0.XI33.MM2_b P_18 L=1.8e-07 W=1.2e-06